*SPEF "ieee 1481-1999"
*DESIGN "manual_macro_placement_test"
*DATE "11:11:11 Fri 11 11, 1111"
*VENDOR "OpenRCX"
*PROGRAM "Parallel Extraction"
*VERSION "1.0"
*DESIGN_FLOW "NAME_SCOPE LOCAL" "PIN_CAP NONE"
*DIVIDER /
*DELIMITER :
*BUS_DELIMITER []
*T_UNIT 1 NS
*C_UNIT 1 PF
*R_UNIT 1 OHM
*L_UNIT 1 HENRY

*NAME_MAP
*3 clk1
*4 clk2
*5 p1
*6 p2
*7 rst1
*8 rst2
*9 x1[0]
*10 x1[10]
*11 x1[11]
*12 x1[12]
*13 x1[13]
*14 x1[14]
*15 x1[15]
*16 x1[16]
*17 x1[17]
*18 x1[18]
*19 x1[19]
*20 x1[1]
*21 x1[20]
*22 x1[21]
*23 x1[22]
*24 x1[23]
*25 x1[24]
*26 x1[25]
*27 x1[26]
*28 x1[27]
*29 x1[28]
*30 x1[29]
*31 x1[2]
*32 x1[30]
*33 x1[31]
*34 x1[3]
*35 x1[4]
*36 x1[5]
*37 x1[6]
*38 x1[7]
*39 x1[8]
*40 x1[9]
*41 x2[0]
*42 x2[10]
*43 x2[11]
*44 x2[12]
*45 x2[13]
*46 x2[14]
*47 x2[15]
*48 x2[16]
*49 x2[17]
*50 x2[18]
*51 x2[19]
*52 x2[1]
*53 x2[20]
*54 x2[21]
*55 x2[22]
*56 x2[23]
*57 x2[24]
*58 x2[25]
*59 x2[26]
*60 x2[27]
*61 x2[28]
*62 x2[29]
*63 x2[2]
*64 x2[30]
*65 x2[31]
*66 x2[3]
*67 x2[4]
*68 x2[5]
*69 x2[6]
*70 x2[7]
*71 x2[8]
*72 x2[9]
*73 y1
*74 y2
*75 net1
*76 net10
*77 net11
*78 net12
*79 net13
*80 net14
*81 net15
*82 net16
*83 net17
*84 net18
*85 net19
*86 net2
*87 net20
*88 net21
*89 net22
*90 net23
*91 net24
*92 net25
*93 net26
*94 net27
*95 net28
*96 net29
*97 net3
*98 net30
*99 net31
*100 net32
*101 net33
*102 net34
*103 net35
*104 net36
*105 net37
*106 net38
*107 net39
*108 net4
*109 net40
*110 net41
*111 net42
*112 net43
*113 net44
*114 net45
*115 net46
*116 net47
*117 net48
*118 net49
*119 net5
*120 net50
*121 net51
*122 net52
*123 net53
*124 net54
*125 net55
*126 net56
*127 net57
*128 net58
*129 net59
*130 net6
*131 net60
*132 net61
*133 net62
*134 net63
*135 net64
*136 net65
*137 net66
*138 net67
*139 net68
*140 net69
*141 net7
*142 net70
*143 net71
*144 net8
*145 net9
*146 FILLER_0_105
*147 FILLER_0_111
*148 FILLER_0_113
*149 FILLER_0_125
*150 FILLER_0_137
*151 FILLER_0_151
*152 FILLER_0_163
*153 FILLER_0_167
*154 FILLER_0_169
*155 FILLER_0_174
*156 FILLER_0_186
*157 FILLER_0_19
*158 FILLER_0_194
*159 FILLER_0_197
*160 FILLER_0_209
*161 FILLER_0_217
*162 FILLER_0_223
*163 FILLER_0_225
*164 FILLER_0_237
*165 FILLER_0_245
*166 FILLER_0_253
*167 FILLER_0_265
*168 FILLER_0_27
*169 FILLER_0_277
*170 FILLER_0_281
*171 FILLER_0_287
*172 FILLER_0_299
*173 FILLER_0_307
*174 FILLER_0_309
*175 FILLER_0_321
*176 FILLER_0_329
*177 FILLER_0_335
*178 FILLER_0_337
*179 FILLER_0_349
*180 FILLER_0_35
*181 FILLER_0_357
*182 FILLER_0_365
*183 FILLER_0_377
*184 FILLER_0_389
*185 FILLER_0_393
*186 FILLER_0_399
*187 FILLER_0_411
*188 FILLER_0_419
*189 FILLER_0_421
*190 FILLER_0_433
*191 FILLER_0_441
*192 FILLER_0_447
*193 FILLER_0_449
*194 FILLER_0_461
*195 FILLER_0_469
*196 FILLER_0_47
*197 FILLER_0_477
*198 FILLER_0_489
*199 FILLER_0_501
*200 FILLER_0_505
*201 FILLER_0_511
*202 FILLER_0_523
*203 FILLER_0_531
*204 FILLER_0_533
*205 FILLER_0_545
*206 FILLER_0_55
*207 FILLER_0_555
*208 FILLER_0_559
*209 FILLER_0_561
*210 FILLER_0_57
*211 FILLER_0_573
*212 FILLER_0_581
*213 FILLER_0_589
*214 FILLER_0_601
*215 FILLER_0_613
*216 FILLER_0_617
*217 FILLER_0_623
*218 FILLER_0_63
*219 FILLER_0_635
*220 FILLER_0_643
*221 FILLER_0_7
*222 FILLER_0_75
*223 FILLER_0_83
*224 FILLER_0_85
*225 FILLER_0_97
*226 FILLER_100_109
*227 FILLER_100_121
*228 FILLER_100_133
*229 FILLER_100_139
*230 FILLER_100_141
*231 FILLER_100_15
*232 FILLER_100_153
*233 FILLER_100_165
*234 FILLER_100_177
*235 FILLER_100_189
*236 FILLER_100_195
*237 FILLER_100_197
*238 FILLER_100_209
*239 FILLER_100_221
*240 FILLER_100_233
*241 FILLER_100_245
*242 FILLER_100_251
*243 FILLER_100_253
*244 FILLER_100_265
*245 FILLER_100_27
*246 FILLER_100_277
*247 FILLER_100_289
*248 FILLER_100_29
*249 FILLER_100_3
*250 FILLER_100_301
*251 FILLER_100_307
*252 FILLER_100_309
*253 FILLER_100_321
*254 FILLER_100_333
*255 FILLER_100_345
*256 FILLER_100_357
*257 FILLER_100_363
*258 FILLER_100_365
*259 FILLER_100_377
*260 FILLER_100_389
*261 FILLER_100_401
*262 FILLER_100_41
*263 FILLER_100_413
*264 FILLER_100_419
*265 FILLER_100_421
*266 FILLER_100_433
*267 FILLER_100_445
*268 FILLER_100_457
*269 FILLER_100_469
*270 FILLER_100_475
*271 FILLER_100_477
*272 FILLER_100_489
*273 FILLER_100_501
*274 FILLER_100_513
*275 FILLER_100_525
*276 FILLER_100_53
*277 FILLER_100_531
*278 FILLER_100_533
*279 FILLER_100_545
*280 FILLER_100_557
*281 FILLER_100_569
*282 FILLER_100_581
*283 FILLER_100_587
*284 FILLER_100_589
*285 FILLER_100_601
*286 FILLER_100_613
*287 FILLER_100_625
*288 FILLER_100_637
*289 FILLER_100_643
*290 FILLER_100_645
*291 FILLER_100_65
*292 FILLER_100_77
*293 FILLER_100_83
*294 FILLER_100_85
*295 FILLER_100_97
*296 FILLER_101_105
*297 FILLER_101_111
*298 FILLER_101_113
*299 FILLER_101_125
*300 FILLER_101_137
*301 FILLER_101_149
*302 FILLER_101_15
*303 FILLER_101_161
*304 FILLER_101_167
*305 FILLER_101_169
*306 FILLER_101_181
*307 FILLER_101_193
*308 FILLER_101_205
*309 FILLER_101_217
*310 FILLER_101_223
*311 FILLER_101_225
*312 FILLER_101_237
*313 FILLER_101_249
*314 FILLER_101_261
*315 FILLER_101_27
*316 FILLER_101_273
*317 FILLER_101_279
*318 FILLER_101_281
*319 FILLER_101_293
*320 FILLER_101_3
*321 FILLER_101_305
*322 FILLER_101_317
*323 FILLER_101_329
*324 FILLER_101_335
*325 FILLER_101_337
*326 FILLER_101_349
*327 FILLER_101_361
*328 FILLER_101_373
*329 FILLER_101_385
*330 FILLER_101_39
*331 FILLER_101_391
*332 FILLER_101_393
*333 FILLER_101_405
*334 FILLER_101_417
*335 FILLER_101_429
*336 FILLER_101_441
*337 FILLER_101_447
*338 FILLER_101_449
*339 FILLER_101_461
*340 FILLER_101_473
*341 FILLER_101_485
*342 FILLER_101_497
*343 FILLER_101_503
*344 FILLER_101_505
*345 FILLER_101_51
*346 FILLER_101_517
*347 FILLER_101_529
*348 FILLER_101_541
*349 FILLER_101_55
*350 FILLER_101_553
*351 FILLER_101_559
*352 FILLER_101_561
*353 FILLER_101_57
*354 FILLER_101_573
*355 FILLER_101_585
*356 FILLER_101_597
*357 FILLER_101_609
*358 FILLER_101_615
*359 FILLER_101_617
*360 FILLER_101_629
*361 FILLER_101_641
*362 FILLER_101_69
*363 FILLER_101_81
*364 FILLER_101_93
*365 FILLER_102_109
*366 FILLER_102_121
*367 FILLER_102_133
*368 FILLER_102_139
*369 FILLER_102_141
*370 FILLER_102_153
*371 FILLER_102_165
*372 FILLER_102_177
*373 FILLER_102_189
*374 FILLER_102_19
*375 FILLER_102_195
*376 FILLER_102_197
*377 FILLER_102_209
*378 FILLER_102_221
*379 FILLER_102_233
*380 FILLER_102_245
*381 FILLER_102_251
*382 FILLER_102_253
*383 FILLER_102_265
*384 FILLER_102_27
*385 FILLER_102_277
*386 FILLER_102_289
*387 FILLER_102_29
*388 FILLER_102_301
*389 FILLER_102_307
*390 FILLER_102_309
*391 FILLER_102_321
*392 FILLER_102_333
*393 FILLER_102_345
*394 FILLER_102_357
*395 FILLER_102_363
*396 FILLER_102_365
*397 FILLER_102_377
*398 FILLER_102_389
*399 FILLER_102_401
*400 FILLER_102_41
*401 FILLER_102_413
*402 FILLER_102_419
*403 FILLER_102_421
*404 FILLER_102_433
*405 FILLER_102_445
*406 FILLER_102_457
*407 FILLER_102_469
*408 FILLER_102_475
*409 FILLER_102_477
*410 FILLER_102_489
*411 FILLER_102_501
*412 FILLER_102_513
*413 FILLER_102_525
*414 FILLER_102_53
*415 FILLER_102_531
*416 FILLER_102_533
*417 FILLER_102_545
*418 FILLER_102_557
*419 FILLER_102_569
*420 FILLER_102_581
*421 FILLER_102_587
*422 FILLER_102_589
*423 FILLER_102_601
*424 FILLER_102_613
*425 FILLER_102_625
*426 FILLER_102_637
*427 FILLER_102_643
*428 FILLER_102_645
*429 FILLER_102_65
*430 FILLER_102_7
*431 FILLER_102_77
*432 FILLER_102_83
*433 FILLER_102_85
*434 FILLER_102_97
*435 FILLER_103_105
*436 FILLER_103_111
*437 FILLER_103_113
*438 FILLER_103_125
*439 FILLER_103_137
*440 FILLER_103_149
*441 FILLER_103_15
*442 FILLER_103_161
*443 FILLER_103_167
*444 FILLER_103_169
*445 FILLER_103_181
*446 FILLER_103_193
*447 FILLER_103_205
*448 FILLER_103_217
*449 FILLER_103_223
*450 FILLER_103_225
*451 FILLER_103_237
*452 FILLER_103_249
*453 FILLER_103_261
*454 FILLER_103_27
*455 FILLER_103_273
*456 FILLER_103_279
*457 FILLER_103_281
*458 FILLER_103_293
*459 FILLER_103_3
*460 FILLER_103_305
*461 FILLER_103_317
*462 FILLER_103_329
*463 FILLER_103_335
*464 FILLER_103_337
*465 FILLER_103_349
*466 FILLER_103_361
*467 FILLER_103_373
*468 FILLER_103_385
*469 FILLER_103_39
*470 FILLER_103_391
*471 FILLER_103_393
*472 FILLER_103_405
*473 FILLER_103_417
*474 FILLER_103_429
*475 FILLER_103_441
*476 FILLER_103_447
*477 FILLER_103_449
*478 FILLER_103_461
*479 FILLER_103_473
*480 FILLER_103_485
*481 FILLER_103_497
*482 FILLER_103_503
*483 FILLER_103_505
*484 FILLER_103_51
*485 FILLER_103_517
*486 FILLER_103_529
*487 FILLER_103_541
*488 FILLER_103_55
*489 FILLER_103_553
*490 FILLER_103_559
*491 FILLER_103_561
*492 FILLER_103_57
*493 FILLER_103_573
*494 FILLER_103_585
*495 FILLER_103_597
*496 FILLER_103_609
*497 FILLER_103_615
*498 FILLER_103_617
*499 FILLER_103_629
*500 FILLER_103_641
*501 FILLER_103_649
*502 FILLER_103_69
*503 FILLER_103_81
*504 FILLER_103_93
*505 FILLER_104_109
*506 FILLER_104_121
*507 FILLER_104_133
*508 FILLER_104_139
*509 FILLER_104_141
*510 FILLER_104_15
*511 FILLER_104_153
*512 FILLER_104_165
*513 FILLER_104_177
*514 FILLER_104_189
*515 FILLER_104_195
*516 FILLER_104_197
*517 FILLER_104_209
*518 FILLER_104_221
*519 FILLER_104_233
*520 FILLER_104_245
*521 FILLER_104_251
*522 FILLER_104_253
*523 FILLER_104_265
*524 FILLER_104_27
*525 FILLER_104_277
*526 FILLER_104_289
*527 FILLER_104_29
*528 FILLER_104_3
*529 FILLER_104_301
*530 FILLER_104_307
*531 FILLER_104_309
*532 FILLER_104_321
*533 FILLER_104_333
*534 FILLER_104_345
*535 FILLER_104_357
*536 FILLER_104_363
*537 FILLER_104_365
*538 FILLER_104_377
*539 FILLER_104_389
*540 FILLER_104_401
*541 FILLER_104_41
*542 FILLER_104_413
*543 FILLER_104_419
*544 FILLER_104_421
*545 FILLER_104_433
*546 FILLER_104_445
*547 FILLER_104_457
*548 FILLER_104_469
*549 FILLER_104_475
*550 FILLER_104_477
*551 FILLER_104_489
*552 FILLER_104_501
*553 FILLER_104_513
*554 FILLER_104_525
*555 FILLER_104_53
*556 FILLER_104_531
*557 FILLER_104_533
*558 FILLER_104_545
*559 FILLER_104_557
*560 FILLER_104_569
*561 FILLER_104_581
*562 FILLER_104_587
*563 FILLER_104_589
*564 FILLER_104_601
*565 FILLER_104_613
*566 FILLER_104_625
*567 FILLER_104_637
*568 FILLER_104_643
*569 FILLER_104_645
*570 FILLER_104_65
*571 FILLER_104_77
*572 FILLER_104_83
*573 FILLER_104_85
*574 FILLER_104_97
*575 FILLER_105_105
*576 FILLER_105_111
*577 FILLER_105_113
*578 FILLER_105_125
*579 FILLER_105_137
*580 FILLER_105_149
*581 FILLER_105_15
*582 FILLER_105_161
*583 FILLER_105_167
*584 FILLER_105_169
*585 FILLER_105_181
*586 FILLER_105_193
*587 FILLER_105_205
*588 FILLER_105_217
*589 FILLER_105_223
*590 FILLER_105_225
*591 FILLER_105_237
*592 FILLER_105_249
*593 FILLER_105_261
*594 FILLER_105_27
*595 FILLER_105_273
*596 FILLER_105_279
*597 FILLER_105_281
*598 FILLER_105_293
*599 FILLER_105_3
*600 FILLER_105_305
*601 FILLER_105_317
*602 FILLER_105_329
*603 FILLER_105_335
*604 FILLER_105_337
*605 FILLER_105_349
*606 FILLER_105_361
*607 FILLER_105_373
*608 FILLER_105_385
*609 FILLER_105_39
*610 FILLER_105_391
*611 FILLER_105_393
*612 FILLER_105_405
*613 FILLER_105_417
*614 FILLER_105_429
*615 FILLER_105_441
*616 FILLER_105_447
*617 FILLER_105_449
*618 FILLER_105_461
*619 FILLER_105_473
*620 FILLER_105_485
*621 FILLER_105_497
*622 FILLER_105_503
*623 FILLER_105_505
*624 FILLER_105_51
*625 FILLER_105_517
*626 FILLER_105_529
*627 FILLER_105_541
*628 FILLER_105_55
*629 FILLER_105_553
*630 FILLER_105_559
*631 FILLER_105_561
*632 FILLER_105_57
*633 FILLER_105_573
*634 FILLER_105_585
*635 FILLER_105_597
*636 FILLER_105_609
*637 FILLER_105_615
*638 FILLER_105_617
*639 FILLER_105_629
*640 FILLER_105_641
*641 FILLER_105_649
*642 FILLER_105_69
*643 FILLER_105_81
*644 FILLER_105_93
*645 FILLER_106_109
*646 FILLER_106_121
*647 FILLER_106_133
*648 FILLER_106_139
*649 FILLER_106_141
*650 FILLER_106_15
*651 FILLER_106_153
*652 FILLER_106_165
*653 FILLER_106_177
*654 FILLER_106_189
*655 FILLER_106_195
*656 FILLER_106_197
*657 FILLER_106_209
*658 FILLER_106_221
*659 FILLER_106_233
*660 FILLER_106_245
*661 FILLER_106_251
*662 FILLER_106_253
*663 FILLER_106_265
*664 FILLER_106_27
*665 FILLER_106_277
*666 FILLER_106_289
*667 FILLER_106_29
*668 FILLER_106_3
*669 FILLER_106_301
*670 FILLER_106_307
*671 FILLER_106_309
*672 FILLER_106_321
*673 FILLER_106_333
*674 FILLER_106_345
*675 FILLER_106_357
*676 FILLER_106_363
*677 FILLER_106_365
*678 FILLER_106_377
*679 FILLER_106_389
*680 FILLER_106_401
*681 FILLER_106_41
*682 FILLER_106_413
*683 FILLER_106_419
*684 FILLER_106_421
*685 FILLER_106_433
*686 FILLER_106_445
*687 FILLER_106_457
*688 FILLER_106_469
*689 FILLER_106_475
*690 FILLER_106_477
*691 FILLER_106_489
*692 FILLER_106_501
*693 FILLER_106_513
*694 FILLER_106_525
*695 FILLER_106_53
*696 FILLER_106_531
*697 FILLER_106_533
*698 FILLER_106_545
*699 FILLER_106_557
*700 FILLER_106_569
*701 FILLER_106_581
*702 FILLER_106_587
*703 FILLER_106_589
*704 FILLER_106_601
*705 FILLER_106_613
*706 FILLER_106_625
*707 FILLER_106_637
*708 FILLER_106_643
*709 FILLER_106_645
*710 FILLER_106_65
*711 FILLER_106_77
*712 FILLER_106_83
*713 FILLER_106_85
*714 FILLER_106_97
*715 FILLER_107_105
*716 FILLER_107_111
*717 FILLER_107_113
*718 FILLER_107_125
*719 FILLER_107_137
*720 FILLER_107_149
*721 FILLER_107_15
*722 FILLER_107_161
*723 FILLER_107_167
*724 FILLER_107_169
*725 FILLER_107_181
*726 FILLER_107_193
*727 FILLER_107_205
*728 FILLER_107_217
*729 FILLER_107_223
*730 FILLER_107_225
*731 FILLER_107_237
*732 FILLER_107_249
*733 FILLER_107_261
*734 FILLER_107_27
*735 FILLER_107_273
*736 FILLER_107_279
*737 FILLER_107_281
*738 FILLER_107_293
*739 FILLER_107_3
*740 FILLER_107_305
*741 FILLER_107_317
*742 FILLER_107_329
*743 FILLER_107_335
*744 FILLER_107_337
*745 FILLER_107_349
*746 FILLER_107_361
*747 FILLER_107_373
*748 FILLER_107_385
*749 FILLER_107_39
*750 FILLER_107_391
*751 FILLER_107_393
*752 FILLER_107_405
*753 FILLER_107_417
*754 FILLER_107_429
*755 FILLER_107_441
*756 FILLER_107_447
*757 FILLER_107_449
*758 FILLER_107_461
*759 FILLER_107_473
*760 FILLER_107_485
*761 FILLER_107_497
*762 FILLER_107_503
*763 FILLER_107_505
*764 FILLER_107_51
*765 FILLER_107_517
*766 FILLER_107_529
*767 FILLER_107_541
*768 FILLER_107_55
*769 FILLER_107_553
*770 FILLER_107_559
*771 FILLER_107_561
*772 FILLER_107_57
*773 FILLER_107_573
*774 FILLER_107_585
*775 FILLER_107_597
*776 FILLER_107_609
*777 FILLER_107_615
*778 FILLER_107_617
*779 FILLER_107_629
*780 FILLER_107_641
*781 FILLER_107_69
*782 FILLER_107_81
*783 FILLER_107_93
*784 FILLER_108_109
*785 FILLER_108_121
*786 FILLER_108_133
*787 FILLER_108_139
*788 FILLER_108_141
*789 FILLER_108_15
*790 FILLER_108_153
*791 FILLER_108_165
*792 FILLER_108_177
*793 FILLER_108_189
*794 FILLER_108_195
*795 FILLER_108_197
*796 FILLER_108_209
*797 FILLER_108_221
*798 FILLER_108_233
*799 FILLER_108_245
*800 FILLER_108_251
*801 FILLER_108_253
*802 FILLER_108_265
*803 FILLER_108_27
*804 FILLER_108_277
*805 FILLER_108_289
*806 FILLER_108_29
*807 FILLER_108_3
*808 FILLER_108_301
*809 FILLER_108_307
*810 FILLER_108_309
*811 FILLER_108_321
*812 FILLER_108_333
*813 FILLER_108_345
*814 FILLER_108_357
*815 FILLER_108_363
*816 FILLER_108_365
*817 FILLER_108_377
*818 FILLER_108_389
*819 FILLER_108_401
*820 FILLER_108_41
*821 FILLER_108_413
*822 FILLER_108_419
*823 FILLER_108_421
*824 FILLER_108_433
*825 FILLER_108_445
*826 FILLER_108_457
*827 FILLER_108_469
*828 FILLER_108_475
*829 FILLER_108_477
*830 FILLER_108_489
*831 FILLER_108_501
*832 FILLER_108_513
*833 FILLER_108_525
*834 FILLER_108_53
*835 FILLER_108_531
*836 FILLER_108_533
*837 FILLER_108_545
*838 FILLER_108_557
*839 FILLER_108_569
*840 FILLER_108_581
*841 FILLER_108_587
*842 FILLER_108_589
*843 FILLER_108_601
*844 FILLER_108_613
*845 FILLER_108_625
*846 FILLER_108_637
*847 FILLER_108_643
*848 FILLER_108_645
*849 FILLER_108_65
*850 FILLER_108_77
*851 FILLER_108_83
*852 FILLER_108_85
*853 FILLER_108_97
*854 FILLER_109_105
*855 FILLER_109_111
*856 FILLER_109_113
*857 FILLER_109_12
*858 FILLER_109_125
*859 FILLER_109_137
*860 FILLER_109_141
*861 FILLER_109_147
*862 FILLER_109_159
*863 FILLER_109_167
*864 FILLER_109_169
*865 FILLER_109_177
*866 FILLER_109_188
*867 FILLER_109_197
*868 FILLER_109_209
*869 FILLER_109_217
*870 FILLER_109_223
*871 FILLER_109_225
*872 FILLER_109_237
*873 FILLER_109_24
*874 FILLER_109_249
*875 FILLER_109_253
*876 FILLER_109_258
*877 FILLER_109_270
*878 FILLER_109_278
*879 FILLER_109_281
*880 FILLER_109_289
*881 FILLER_109_29
*882 FILLER_109_300
*883 FILLER_109_309
*884 FILLER_109_321
*885 FILLER_109_329
*886 FILLER_109_335
*887 FILLER_109_337
*888 FILLER_109_349
*889 FILLER_109_35
*890 FILLER_109_361
*891 FILLER_109_365
*892 FILLER_109_370
*893 FILLER_109_382
*894 FILLER_109_390
*895 FILLER_109_393
*896 FILLER_109_401
*897 FILLER_109_406
*898 FILLER_109_418
*899 FILLER_109_421
*900 FILLER_109_433
*901 FILLER_109_441
*902 FILLER_109_447
*903 FILLER_109_449
*904 FILLER_109_461
*905 FILLER_109_47
*906 FILLER_109_473
*907 FILLER_109_477
*908 FILLER_109_483
*909 FILLER_109_495
*910 FILLER_109_503
*911 FILLER_109_505
*912 FILLER_109_513
*913 FILLER_109_518
*914 FILLER_109_530
*915 FILLER_109_533
*916 FILLER_109_545
*917 FILLER_109_55
*918 FILLER_109_559
*919 FILLER_109_561
*920 FILLER_109_57
*921 FILLER_109_573
*922 FILLER_109_585
*923 FILLER_109_589
*924 FILLER_109_594
*925 FILLER_109_606
*926 FILLER_109_614
*927 FILLER_109_617
*928 FILLER_109_625
*929 FILLER_109_630
*930 FILLER_109_642
*931 FILLER_109_645
*932 FILLER_109_65
*933 FILLER_109_70
*934 FILLER_109_82
*935 FILLER_109_85
*936 FILLER_109_97
*937 FILLER_10_109
*938 FILLER_10_121
*939 FILLER_10_133
*940 FILLER_10_139
*941 FILLER_10_141
*942 FILLER_10_15
*943 FILLER_10_153
*944 FILLER_10_165
*945 FILLER_10_177
*946 FILLER_10_189
*947 FILLER_10_195
*948 FILLER_10_197
*949 FILLER_10_209
*950 FILLER_10_221
*951 FILLER_10_233
*952 FILLER_10_245
*953 FILLER_10_251
*954 FILLER_10_253
*955 FILLER_10_265
*956 FILLER_10_27
*957 FILLER_10_277
*958 FILLER_10_289
*959 FILLER_10_29
*960 FILLER_10_3
*961 FILLER_10_301
*962 FILLER_10_307
*963 FILLER_10_309
*964 FILLER_10_321
*965 FILLER_10_333
*966 FILLER_10_345
*967 FILLER_10_357
*968 FILLER_10_363
*969 FILLER_10_365
*970 FILLER_10_377
*971 FILLER_10_389
*972 FILLER_10_401
*973 FILLER_10_41
*974 FILLER_10_413
*975 FILLER_10_419
*976 FILLER_10_421
*977 FILLER_10_433
*978 FILLER_10_445
*979 FILLER_10_457
*980 FILLER_10_469
*981 FILLER_10_475
*982 FILLER_10_477
*983 FILLER_10_489
*984 FILLER_10_501
*985 FILLER_10_513
*986 FILLER_10_525
*987 FILLER_10_53
*988 FILLER_10_531
*989 FILLER_10_533
*990 FILLER_10_545
*991 FILLER_10_557
*992 FILLER_10_569
*993 FILLER_10_581
*994 FILLER_10_587
*995 FILLER_10_589
*996 FILLER_10_601
*997 FILLER_10_613
*998 FILLER_10_625
*999 FILLER_10_637
*1000 FILLER_10_643
*1001 FILLER_10_645
*1002 FILLER_10_65
*1003 FILLER_10_77
*1004 FILLER_10_83
*1005 FILLER_10_85
*1006 FILLER_10_97
*1007 FILLER_11_105
*1008 FILLER_11_111
*1009 FILLER_11_113
*1010 FILLER_11_125
*1011 FILLER_11_137
*1012 FILLER_11_149
*1013 FILLER_11_15
*1014 FILLER_11_161
*1015 FILLER_11_167
*1016 FILLER_11_169
*1017 FILLER_11_181
*1018 FILLER_11_193
*1019 FILLER_11_205
*1020 FILLER_11_217
*1021 FILLER_11_223
*1022 FILLER_11_225
*1023 FILLER_11_237
*1024 FILLER_11_249
*1025 FILLER_11_261
*1026 FILLER_11_27
*1027 FILLER_11_273
*1028 FILLER_11_279
*1029 FILLER_11_281
*1030 FILLER_11_293
*1031 FILLER_11_3
*1032 FILLER_11_305
*1033 FILLER_11_317
*1034 FILLER_11_329
*1035 FILLER_11_335
*1036 FILLER_11_337
*1037 FILLER_11_349
*1038 FILLER_11_361
*1039 FILLER_11_373
*1040 FILLER_11_385
*1041 FILLER_11_39
*1042 FILLER_11_391
*1043 FILLER_11_393
*1044 FILLER_11_405
*1045 FILLER_11_417
*1046 FILLER_11_429
*1047 FILLER_11_441
*1048 FILLER_11_447
*1049 FILLER_11_449
*1050 FILLER_11_461
*1051 FILLER_11_473
*1052 FILLER_11_485
*1053 FILLER_11_497
*1054 FILLER_11_503
*1055 FILLER_11_505
*1056 FILLER_11_51
*1057 FILLER_11_517
*1058 FILLER_11_529
*1059 FILLER_11_541
*1060 FILLER_11_55
*1061 FILLER_11_553
*1062 FILLER_11_559
*1063 FILLER_11_561
*1064 FILLER_11_57
*1065 FILLER_11_573
*1066 FILLER_11_585
*1067 FILLER_11_597
*1068 FILLER_11_609
*1069 FILLER_11_615
*1070 FILLER_11_617
*1071 FILLER_11_629
*1072 FILLER_11_641
*1073 FILLER_11_649
*1074 FILLER_11_69
*1075 FILLER_11_81
*1076 FILLER_11_93
*1077 FILLER_12_109
*1078 FILLER_12_121
*1079 FILLER_12_133
*1080 FILLER_12_139
*1081 FILLER_12_141
*1082 FILLER_12_15
*1083 FILLER_12_153
*1084 FILLER_12_165
*1085 FILLER_12_177
*1086 FILLER_12_189
*1087 FILLER_12_195
*1088 FILLER_12_197
*1089 FILLER_12_209
*1090 FILLER_12_221
*1091 FILLER_12_233
*1092 FILLER_12_245
*1093 FILLER_12_251
*1094 FILLER_12_253
*1095 FILLER_12_265
*1096 FILLER_12_27
*1097 FILLER_12_277
*1098 FILLER_12_289
*1099 FILLER_12_29
*1100 FILLER_12_3
*1101 FILLER_12_301
*1102 FILLER_12_307
*1103 FILLER_12_309
*1104 FILLER_12_321
*1105 FILLER_12_333
*1106 FILLER_12_345
*1107 FILLER_12_357
*1108 FILLER_12_363
*1109 FILLER_12_365
*1110 FILLER_12_377
*1111 FILLER_12_389
*1112 FILLER_12_401
*1113 FILLER_12_41
*1114 FILLER_12_413
*1115 FILLER_12_419
*1116 FILLER_12_421
*1117 FILLER_12_433
*1118 FILLER_12_445
*1119 FILLER_12_457
*1120 FILLER_12_469
*1121 FILLER_12_475
*1122 FILLER_12_477
*1123 FILLER_12_489
*1124 FILLER_12_501
*1125 FILLER_12_513
*1126 FILLER_12_525
*1127 FILLER_12_53
*1128 FILLER_12_531
*1129 FILLER_12_533
*1130 FILLER_12_545
*1131 FILLER_12_557
*1132 FILLER_12_569
*1133 FILLER_12_581
*1134 FILLER_12_587
*1135 FILLER_12_589
*1136 FILLER_12_601
*1137 FILLER_12_613
*1138 FILLER_12_625
*1139 FILLER_12_637
*1140 FILLER_12_643
*1141 FILLER_12_645
*1142 FILLER_12_65
*1143 FILLER_12_77
*1144 FILLER_12_83
*1145 FILLER_12_85
*1146 FILLER_12_97
*1147 FILLER_13_105
*1148 FILLER_13_111
*1149 FILLER_13_113
*1150 FILLER_13_125
*1151 FILLER_13_137
*1152 FILLER_13_149
*1153 FILLER_13_15
*1154 FILLER_13_161
*1155 FILLER_13_167
*1156 FILLER_13_169
*1157 FILLER_13_181
*1158 FILLER_13_193
*1159 FILLER_13_205
*1160 FILLER_13_217
*1161 FILLER_13_223
*1162 FILLER_13_225
*1163 FILLER_13_237
*1164 FILLER_13_249
*1165 FILLER_13_261
*1166 FILLER_13_27
*1167 FILLER_13_273
*1168 FILLER_13_279
*1169 FILLER_13_281
*1170 FILLER_13_293
*1171 FILLER_13_3
*1172 FILLER_13_305
*1173 FILLER_13_317
*1174 FILLER_13_329
*1175 FILLER_13_335
*1176 FILLER_13_337
*1177 FILLER_13_349
*1178 FILLER_13_361
*1179 FILLER_13_373
*1180 FILLER_13_385
*1181 FILLER_13_39
*1182 FILLER_13_391
*1183 FILLER_13_393
*1184 FILLER_13_405
*1185 FILLER_13_417
*1186 FILLER_13_429
*1187 FILLER_13_441
*1188 FILLER_13_447
*1189 FILLER_13_449
*1190 FILLER_13_461
*1191 FILLER_13_473
*1192 FILLER_13_485
*1193 FILLER_13_497
*1194 FILLER_13_503
*1195 FILLER_13_505
*1196 FILLER_13_51
*1197 FILLER_13_517
*1198 FILLER_13_529
*1199 FILLER_13_541
*1200 FILLER_13_55
*1201 FILLER_13_553
*1202 FILLER_13_559
*1203 FILLER_13_561
*1204 FILLER_13_57
*1205 FILLER_13_573
*1206 FILLER_13_585
*1207 FILLER_13_597
*1208 FILLER_13_609
*1209 FILLER_13_615
*1210 FILLER_13_617
*1211 FILLER_13_629
*1212 FILLER_13_641
*1213 FILLER_13_649
*1214 FILLER_13_69
*1215 FILLER_13_81
*1216 FILLER_13_93
*1217 FILLER_14_109
*1218 FILLER_14_121
*1219 FILLER_14_133
*1220 FILLER_14_139
*1221 FILLER_14_141
*1222 FILLER_14_15
*1223 FILLER_14_153
*1224 FILLER_14_165
*1225 FILLER_14_177
*1226 FILLER_14_189
*1227 FILLER_14_195
*1228 FILLER_14_197
*1229 FILLER_14_209
*1230 FILLER_14_221
*1231 FILLER_14_233
*1232 FILLER_14_245
*1233 FILLER_14_251
*1234 FILLER_14_253
*1235 FILLER_14_265
*1236 FILLER_14_27
*1237 FILLER_14_277
*1238 FILLER_14_289
*1239 FILLER_14_29
*1240 FILLER_14_3
*1241 FILLER_14_301
*1242 FILLER_14_307
*1243 FILLER_14_309
*1244 FILLER_14_321
*1245 FILLER_14_333
*1246 FILLER_14_345
*1247 FILLER_14_357
*1248 FILLER_14_363
*1249 FILLER_14_365
*1250 FILLER_14_377
*1251 FILLER_14_389
*1252 FILLER_14_401
*1253 FILLER_14_41
*1254 FILLER_14_413
*1255 FILLER_14_419
*1256 FILLER_14_421
*1257 FILLER_14_433
*1258 FILLER_14_445
*1259 FILLER_14_457
*1260 FILLER_14_469
*1261 FILLER_14_475
*1262 FILLER_14_477
*1263 FILLER_14_489
*1264 FILLER_14_501
*1265 FILLER_14_513
*1266 FILLER_14_525
*1267 FILLER_14_53
*1268 FILLER_14_531
*1269 FILLER_14_533
*1270 FILLER_14_545
*1271 FILLER_14_557
*1272 FILLER_14_569
*1273 FILLER_14_581
*1274 FILLER_14_587
*1275 FILLER_14_589
*1276 FILLER_14_601
*1277 FILLER_14_613
*1278 FILLER_14_625
*1279 FILLER_14_637
*1280 FILLER_14_643
*1281 FILLER_14_645
*1282 FILLER_14_65
*1283 FILLER_14_77
*1284 FILLER_14_83
*1285 FILLER_14_85
*1286 FILLER_14_97
*1287 FILLER_15_105
*1288 FILLER_15_111
*1289 FILLER_15_113
*1290 FILLER_15_125
*1291 FILLER_15_137
*1292 FILLER_15_149
*1293 FILLER_15_161
*1294 FILLER_15_167
*1295 FILLER_15_169
*1296 FILLER_15_181
*1297 FILLER_15_19
*1298 FILLER_15_193
*1299 FILLER_15_205
*1300 FILLER_15_217
*1301 FILLER_15_223
*1302 FILLER_15_225
*1303 FILLER_15_237
*1304 FILLER_15_249
*1305 FILLER_15_261
*1306 FILLER_15_273
*1307 FILLER_15_279
*1308 FILLER_15_281
*1309 FILLER_15_293
*1310 FILLER_15_305
*1311 FILLER_15_31
*1312 FILLER_15_317
*1313 FILLER_15_329
*1314 FILLER_15_335
*1315 FILLER_15_337
*1316 FILLER_15_349
*1317 FILLER_15_361
*1318 FILLER_15_373
*1319 FILLER_15_385
*1320 FILLER_15_391
*1321 FILLER_15_393
*1322 FILLER_15_405
*1323 FILLER_15_417
*1324 FILLER_15_429
*1325 FILLER_15_43
*1326 FILLER_15_441
*1327 FILLER_15_447
*1328 FILLER_15_449
*1329 FILLER_15_461
*1330 FILLER_15_473
*1331 FILLER_15_485
*1332 FILLER_15_497
*1333 FILLER_15_503
*1334 FILLER_15_505
*1335 FILLER_15_517
*1336 FILLER_15_529
*1337 FILLER_15_541
*1338 FILLER_15_55
*1339 FILLER_15_553
*1340 FILLER_15_559
*1341 FILLER_15_561
*1342 FILLER_15_57
*1343 FILLER_15_573
*1344 FILLER_15_585
*1345 FILLER_15_597
*1346 FILLER_15_609
*1347 FILLER_15_615
*1348 FILLER_15_617
*1349 FILLER_15_629
*1350 FILLER_15_641
*1351 FILLER_15_69
*1352 FILLER_15_7
*1353 FILLER_15_81
*1354 FILLER_15_93
*1355 FILLER_16_109
*1356 FILLER_16_121
*1357 FILLER_16_133
*1358 FILLER_16_139
*1359 FILLER_16_141
*1360 FILLER_16_15
*1361 FILLER_16_153
*1362 FILLER_16_165
*1363 FILLER_16_177
*1364 FILLER_16_189
*1365 FILLER_16_195
*1366 FILLER_16_197
*1367 FILLER_16_209
*1368 FILLER_16_221
*1369 FILLER_16_233
*1370 FILLER_16_245
*1371 FILLER_16_251
*1372 FILLER_16_253
*1373 FILLER_16_265
*1374 FILLER_16_27
*1375 FILLER_16_277
*1376 FILLER_16_289
*1377 FILLER_16_29
*1378 FILLER_16_3
*1379 FILLER_16_301
*1380 FILLER_16_307
*1381 FILLER_16_309
*1382 FILLER_16_321
*1383 FILLER_16_333
*1384 FILLER_16_345
*1385 FILLER_16_357
*1386 FILLER_16_363
*1387 FILLER_16_365
*1388 FILLER_16_377
*1389 FILLER_16_389
*1390 FILLER_16_401
*1391 FILLER_16_41
*1392 FILLER_16_413
*1393 FILLER_16_419
*1394 FILLER_16_421
*1395 FILLER_16_433
*1396 FILLER_16_445
*1397 FILLER_16_457
*1398 FILLER_16_469
*1399 FILLER_16_475
*1400 FILLER_16_477
*1401 FILLER_16_489
*1402 FILLER_16_501
*1403 FILLER_16_513
*1404 FILLER_16_525
*1405 FILLER_16_53
*1406 FILLER_16_531
*1407 FILLER_16_533
*1408 FILLER_16_545
*1409 FILLER_16_557
*1410 FILLER_16_569
*1411 FILLER_16_581
*1412 FILLER_16_587
*1413 FILLER_16_589
*1414 FILLER_16_601
*1415 FILLER_16_613
*1416 FILLER_16_625
*1417 FILLER_16_637
*1418 FILLER_16_643
*1419 FILLER_16_645
*1420 FILLER_16_65
*1421 FILLER_16_77
*1422 FILLER_16_83
*1423 FILLER_16_85
*1424 FILLER_16_97
*1425 FILLER_17_105
*1426 FILLER_17_111
*1427 FILLER_17_113
*1428 FILLER_17_125
*1429 FILLER_17_137
*1430 FILLER_17_149
*1431 FILLER_17_15
*1432 FILLER_17_161
*1433 FILLER_17_167
*1434 FILLER_17_169
*1435 FILLER_17_181
*1436 FILLER_17_193
*1437 FILLER_17_205
*1438 FILLER_17_217
*1439 FILLER_17_223
*1440 FILLER_17_225
*1441 FILLER_17_237
*1442 FILLER_17_249
*1443 FILLER_17_261
*1444 FILLER_17_27
*1445 FILLER_17_273
*1446 FILLER_17_279
*1447 FILLER_17_281
*1448 FILLER_17_293
*1449 FILLER_17_3
*1450 FILLER_17_305
*1451 FILLER_17_317
*1452 FILLER_17_329
*1453 FILLER_17_335
*1454 FILLER_17_337
*1455 FILLER_17_349
*1456 FILLER_17_361
*1457 FILLER_17_373
*1458 FILLER_17_385
*1459 FILLER_17_39
*1460 FILLER_17_391
*1461 FILLER_17_393
*1462 FILLER_17_405
*1463 FILLER_17_417
*1464 FILLER_17_429
*1465 FILLER_17_441
*1466 FILLER_17_447
*1467 FILLER_17_449
*1468 FILLER_17_461
*1469 FILLER_17_473
*1470 FILLER_17_485
*1471 FILLER_17_497
*1472 FILLER_17_503
*1473 FILLER_17_505
*1474 FILLER_17_51
*1475 FILLER_17_517
*1476 FILLER_17_529
*1477 FILLER_17_541
*1478 FILLER_17_55
*1479 FILLER_17_553
*1480 FILLER_17_559
*1481 FILLER_17_561
*1482 FILLER_17_57
*1483 FILLER_17_573
*1484 FILLER_17_585
*1485 FILLER_17_597
*1486 FILLER_17_609
*1487 FILLER_17_615
*1488 FILLER_17_617
*1489 FILLER_17_629
*1490 FILLER_17_641
*1491 FILLER_17_649
*1492 FILLER_17_69
*1493 FILLER_17_81
*1494 FILLER_17_93
*1495 FILLER_18_109
*1496 FILLER_18_121
*1497 FILLER_18_133
*1498 FILLER_18_139
*1499 FILLER_18_141
*1500 FILLER_18_15
*1501 FILLER_18_153
*1502 FILLER_18_165
*1503 FILLER_18_177
*1504 FILLER_18_189
*1505 FILLER_18_195
*1506 FILLER_18_197
*1507 FILLER_18_209
*1508 FILLER_18_221
*1509 FILLER_18_233
*1510 FILLER_18_245
*1511 FILLER_18_251
*1512 FILLER_18_253
*1513 FILLER_18_265
*1514 FILLER_18_27
*1515 FILLER_18_277
*1516 FILLER_18_289
*1517 FILLER_18_29
*1518 FILLER_18_3
*1519 FILLER_18_301
*1520 FILLER_18_307
*1521 FILLER_18_309
*1522 FILLER_18_321
*1523 FILLER_18_333
*1524 FILLER_18_345
*1525 FILLER_18_357
*1526 FILLER_18_363
*1527 FILLER_18_365
*1528 FILLER_18_377
*1529 FILLER_18_389
*1530 FILLER_18_401
*1531 FILLER_18_41
*1532 FILLER_18_413
*1533 FILLER_18_419
*1534 FILLER_18_421
*1535 FILLER_18_433
*1536 FILLER_18_445
*1537 FILLER_18_457
*1538 FILLER_18_469
*1539 FILLER_18_475
*1540 FILLER_18_477
*1541 FILLER_18_489
*1542 FILLER_18_501
*1543 FILLER_18_513
*1544 FILLER_18_525
*1545 FILLER_18_53
*1546 FILLER_18_531
*1547 FILLER_18_533
*1548 FILLER_18_545
*1549 FILLER_18_557
*1550 FILLER_18_569
*1551 FILLER_18_581
*1552 FILLER_18_587
*1553 FILLER_18_589
*1554 FILLER_18_601
*1555 FILLER_18_613
*1556 FILLER_18_625
*1557 FILLER_18_637
*1558 FILLER_18_643
*1559 FILLER_18_645
*1560 FILLER_18_65
*1561 FILLER_18_77
*1562 FILLER_18_83
*1563 FILLER_18_85
*1564 FILLER_18_97
*1565 FILLER_19_105
*1566 FILLER_19_111
*1567 FILLER_19_113
*1568 FILLER_19_125
*1569 FILLER_19_137
*1570 FILLER_19_149
*1571 FILLER_19_15
*1572 FILLER_19_161
*1573 FILLER_19_167
*1574 FILLER_19_169
*1575 FILLER_19_181
*1576 FILLER_19_193
*1577 FILLER_19_205