*SPEF "ieee 1481-1999"
*DESIGN "manual_macro_placement_test"
*DATE "11:11:11 Fri 11 11, 1111"
*VENDOR "OpenRCX"
*PROGRAM "Parallel Extraction"
*VERSION "1.0"
*DESIGN_FLOW "NAME_SCOPE LOCAL" "PIN_CAP NONE"
*DIVIDER /
*DELIMITER :
*BUS_DELIMITER []
*T_UNIT 1 NS
*C_UNIT 1 PF
*R_UNIT 1 OHM
*L_UNIT 1 HENRY

*NAME_MAP
*3 clk1
*4 clk2
*5 p1
*6 p2
*7 rst1
*8 rst2
*9 x1[0]
*10 x1[10]
*11 x1[11]
*12 x1[12]
*13 x1[13]
*14 x1[14]
*15 x1[15]
*16 x1[16]
*17 x1[17]
*18 x1[18]
*19 x1[19]
*20 x1[1]
*21 x1[20]
*22 x1[21]
*23 x1[22]
*24 x1[23]
*25 x1[24]
*26 x1[25]
*27 x1[26]
*28 x1[27]
*29 x1[28]
*30 x1[29]
*31 x1[2]
*32 x1[30]
*33 x1[31]
*34 x1[3]
*35 x1[4]
*36 x1[5]
*37 x1[6]
*38 x1[7]
*39 x1[8]
*40 x1[9]
*41 x2[0]
*42 x2[10]
*43 x2[11]
*44 x2[12]
*45 x2[13]
*46 x2[14]
*47 x2[15]
*48 x2[16]
*49 x2[17]
*50 x2[18]
*51 x2[19]
*52 x2[1]
*53 x2[20]
*54 x2[21]
*55 x2[22]
*56 x2[23]
*57 x2[24]
*58 x2[25]
*59 x2[26]
*60 x2[27]
*61 x2[28]
*62 x2[29]
*63 x2[2]
*64 x2[30]
*65 x2[31]
*66 x2[3]
*67 x2[4]
*68 x2[5]
*69 x2[6]
*70 x2[7]
*71 x2[8]
*72 x2[9]
*73 y1
*74 y2
*75 net1
*76 net10
*77 net11
*78 net12
*79 net13
*80 net14
*81 net15
*82 net16
*83 net17
*84 net18
*85 net19
*86 net2
*87 net20
*88 net21
*89 net22
*90 net23
*91 net24
*92 net25
*93 net26
*94 net27
*95 net28
*96 net29
*97 net3
*98 net30
*99 net31
*100 net32
*101 net33
*102 net34
*103 net35
*104 net36
*105 net37
*106 net38
*107 net39
*108 net4
*109 net40
*110 net41
*111 net42
*112 net43
*113 net44
*114 net45
*115 net46
*116 net47
*117 net48
*118 net49
*119 net5
*120 net50
*121 net51
*122 net52
*123 net53
*124 net54
*125 net55
*126 net56
*127 net57
*128 net58
*129 net59
*130 net6
*131 net60
*132 net61
*133 net62
*134 net63
*135 net64
*136 net65
*137 net66
*138 net67
*139 net68
*140 net69
*141 net7
*142 net70
*143 net71
*144 net8
*145 net9
*146 FILLER_0_105
*147 FILLER_0_111
*148 FILLER_0_113
*149 FILLER_0_125
*150 FILLER_0_133
*151 FILLER_0_141
*152 FILLER_0_153
*153 FILLER_0_165
*154 FILLER_0_169
*155 FILLER_0_181
*156 FILLER_0_193
*157 FILLER_0_197
*158 FILLER_0_209
*159 FILLER_0_21
*160 FILLER_0_217
*161 FILLER_0_223
*162 FILLER_0_225
*163 FILLER_0_237
*164 FILLER_0_245
*165 FILLER_0_253
*166 FILLER_0_265
*167 FILLER_0_27
*168 FILLER_0_277
*169 FILLER_0_281
*170 FILLER_0_287
*171 FILLER_0_299
*172 FILLER_0_307
*173 FILLER_0_309
*174 FILLER_0_321
*175 FILLER_0_329
*176 FILLER_0_335
*177 FILLER_0_337
*178 FILLER_0_349
*179 FILLER_0_35
*180 FILLER_0_357
*181 FILLER_0_365
*182 FILLER_0_377
*183 FILLER_0_389
*184 FILLER_0_393
*185 FILLER_0_401
*186 FILLER_0_413
*187 FILLER_0_419
*188 FILLER_0_421
*189 FILLER_0_433
*190 FILLER_0_441
*191 FILLER_0_447
*192 FILLER_0_449
*193 FILLER_0_461
*194 FILLER_0_469
*195 FILLER_0_47
*196 FILLER_0_477
*197 FILLER_0_489
*198 FILLER_0_501
*199 FILLER_0_505
*200 FILLER_0_513
*201 FILLER_0_525
*202 FILLER_0_531
*203 FILLER_0_533
*204 FILLER_0_545
*205 FILLER_0_55
*206 FILLER_0_555
*207 FILLER_0_559
*208 FILLER_0_561
*209 FILLER_0_57
*210 FILLER_0_573
*211 FILLER_0_581
*212 FILLER_0_589
*213 FILLER_0_601
*214 FILLER_0_613
*215 FILLER_0_617
*216 FILLER_0_625
*217 FILLER_0_63
*218 FILLER_0_637
*219 FILLER_0_643
*220 FILLER_0_75
*221 FILLER_0_83
*222 FILLER_0_85
*223 FILLER_0_9
*224 FILLER_0_97
*225 FILLER_100_288
*226 FILLER_100_300
*227 FILLER_100_312
*228 FILLER_100_314
*229 FILLER_100_326
*230 FILLER_100_338
*231 FILLER_100_350
*232 FILLER_101_288
*233 FILLER_101_300
*234 FILLER_101_312
*235 FILLER_101_324
*236 FILLER_101_336
*237 FILLER_101_340
*238 FILLER_101_342
*239 FILLER_102_288
*240 FILLER_102_300
*241 FILLER_102_312
*242 FILLER_102_314
*243 FILLER_102_326
*244 FILLER_102_338
*245 FILLER_102_350
*246 FILLER_103_109
*247 FILLER_103_113
*248 FILLER_103_125
*249 FILLER_103_137
*250 FILLER_103_141
*251 FILLER_103_153
*252 FILLER_103_16
*253 FILLER_103_165
*254 FILLER_103_169
*255 FILLER_103_181
*256 FILLER_103_193
*257 FILLER_103_197
*258 FILLER_103_209
*259 FILLER_103_221
*260 FILLER_103_225
*261 FILLER_103_237
*262 FILLER_103_249
*263 FILLER_103_253
*264 FILLER_103_265
*265 FILLER_103_277
*266 FILLER_103_281
*267 FILLER_103_29
*268 FILLER_103_293
*269 FILLER_103_305
*270 FILLER_103_309
*271 FILLER_103_321
*272 FILLER_103_333
*273 FILLER_103_337
*274 FILLER_103_349
*275 FILLER_103_361
*276 FILLER_103_365
*277 FILLER_103_377
*278 FILLER_103_389
*279 FILLER_103_393
*280 FILLER_103_405
*281 FILLER_103_41
*282 FILLER_103_417
*283 FILLER_103_421
*284 FILLER_103_433
*285 FILLER_103_445
*286 FILLER_103_449
*287 FILLER_103_461
*288 FILLER_103_473
*289 FILLER_103_477
*290 FILLER_103_489
*291 FILLER_103_501
*292 FILLER_103_505
*293 FILLER_103_517
*294 FILLER_103_529
*295 FILLER_103_53
*296 FILLER_103_533
*297 FILLER_103_545
*298 FILLER_103_557
*299 FILLER_103_561
*300 FILLER_103_57
*301 FILLER_103_573
*302 FILLER_103_585
*303 FILLER_103_589
*304 FILLER_103_601
*305 FILLER_103_613
*306 FILLER_103_617
*307 FILLER_103_629
*308 FILLER_103_645
*309 FILLER_103_69
*310 FILLER_103_81
*311 FILLER_103_85
*312 FILLER_103_97
*313 FILLER_104_109
*314 FILLER_104_121
*315 FILLER_104_133
*316 FILLER_104_139
*317 FILLER_104_141
*318 FILLER_104_153
*319 FILLER_104_165
*320 FILLER_104_177
*321 FILLER_104_189
*322 FILLER_104_195
*323 FILLER_104_197
*324 FILLER_104_209
*325 FILLER_104_21
*326 FILLER_104_221
*327 FILLER_104_233
*328 FILLER_104_245
*329 FILLER_104_251
*330 FILLER_104_253
*331 FILLER_104_265
*332 FILLER_104_27
*333 FILLER_104_277
*334 FILLER_104_289
*335 FILLER_104_29
*336 FILLER_104_301
*337 FILLER_104_307
*338 FILLER_104_309
*339 FILLER_104_321
*340 FILLER_104_333
*341 FILLER_104_345
*342 FILLER_104_357
*343 FILLER_104_363
*344 FILLER_104_365
*345 FILLER_104_377
*346 FILLER_104_389
*347 FILLER_104_401
*348 FILLER_104_41
*349 FILLER_104_413
*350 FILLER_104_419
*351 FILLER_104_421
*352 FILLER_104_433
*353 FILLER_104_445
*354 FILLER_104_457
*355 FILLER_104_469
*356 FILLER_104_475
*357 FILLER_104_477
*358 FILLER_104_489
*359 FILLER_104_501
*360 FILLER_104_513
*361 FILLER_104_525
*362 FILLER_104_53
*363 FILLER_104_531
*364 FILLER_104_533
*365 FILLER_104_545
*366 FILLER_104_557
*367 FILLER_104_569
*368 FILLER_104_581
*369 FILLER_104_587
*370 FILLER_104_589
*371 FILLER_104_601
*372 FILLER_104_613
*373 FILLER_104_625
*374 FILLER_104_633
*375 FILLER_104_645
*376 FILLER_104_65
*377 FILLER_104_77
*378 FILLER_104_83
*379 FILLER_104_85
*380 FILLER_104_9
*381 FILLER_104_97
*382 FILLER_105_105
*383 FILLER_105_111
*384 FILLER_105_113
*385 FILLER_105_125
*386 FILLER_105_137
*387 FILLER_105_149
*388 FILLER_105_15
*389 FILLER_105_161
*390 FILLER_105_167
*391 FILLER_105_169
*392 FILLER_105_181
*393 FILLER_105_193
*394 FILLER_105_205
*395 FILLER_105_217
*396 FILLER_105_223
*397 FILLER_105_225
*398 FILLER_105_237
*399 FILLER_105_249
*400 FILLER_105_261
*401 FILLER_105_27
*402 FILLER_105_273
*403 FILLER_105_279
*404 FILLER_105_281
*405 FILLER_105_293
*406 FILLER_105_3
*407 FILLER_105_305
*408 FILLER_105_317
*409 FILLER_105_329
*410 FILLER_105_335
*411 FILLER_105_337
*412 FILLER_105_349
*413 FILLER_105_361
*414 FILLER_105_373
*415 FILLER_105_385
*416 FILLER_105_39
*417 FILLER_105_391
*418 FILLER_105_393
*419 FILLER_105_405
*420 FILLER_105_417
*421 FILLER_105_429
*422 FILLER_105_441
*423 FILLER_105_447
*424 FILLER_105_449
*425 FILLER_105_461
*426 FILLER_105_473
*427 FILLER_105_485
*428 FILLER_105_497
*429 FILLER_105_503
*430 FILLER_105_505
*431 FILLER_105_51
*432 FILLER_105_517
*433 FILLER_105_529
*434 FILLER_105_541
*435 FILLER_105_55
*436 FILLER_105_553
*437 FILLER_105_559
*438 FILLER_105_561
*439 FILLER_105_57
*440 FILLER_105_573
*441 FILLER_105_585
*442 FILLER_105_597
*443 FILLER_105_609
*444 FILLER_105_615
*445 FILLER_105_617
*446 FILLER_105_629
*447 FILLER_105_641
*448 FILLER_105_649
*449 FILLER_105_69
*450 FILLER_105_81
*451 FILLER_105_93
*452 FILLER_106_109
*453 FILLER_106_121
*454 FILLER_106_133
*455 FILLER_106_139
*456 FILLER_106_141
*457 FILLER_106_15
*458 FILLER_106_153
*459 FILLER_106_165
*460 FILLER_106_177
*461 FILLER_106_189
*462 FILLER_106_195
*463 FILLER_106_197
*464 FILLER_106_209
*465 FILLER_106_221
*466 FILLER_106_233
*467 FILLER_106_245
*468 FILLER_106_251
*469 FILLER_106_253
*470 FILLER_106_265
*471 FILLER_106_27
*472 FILLER_106_277
*473 FILLER_106_289
*474 FILLER_106_29
*475 FILLER_106_3
*476 FILLER_106_301
*477 FILLER_106_307
*478 FILLER_106_309
*479 FILLER_106_321
*480 FILLER_106_333
*481 FILLER_106_345
*482 FILLER_106_357
*483 FILLER_106_363
*484 FILLER_106_365
*485 FILLER_106_377
*486 FILLER_106_389
*487 FILLER_106_401
*488 FILLER_106_41
*489 FILLER_106_413
*490 FILLER_106_419
*491 FILLER_106_421
*492 FILLER_106_433
*493 FILLER_106_445
*494 FILLER_106_457
*495 FILLER_106_469
*496 FILLER_106_475
*497 FILLER_106_477
*498 FILLER_106_489
*499 FILLER_106_501
*500 FILLER_106_513
*501 FILLER_106_525
*502 FILLER_106_53
*503 FILLER_106_531
*504 FILLER_106_533
*505 FILLER_106_545
*506 FILLER_106_557
*507 FILLER_106_569
*508 FILLER_106_581
*509 FILLER_106_587
*510 FILLER_106_589
*511 FILLER_106_601
*512 FILLER_106_613
*513 FILLER_106_625
*514 FILLER_106_637
*515 FILLER_106_643
*516 FILLER_106_645
*517 FILLER_106_65
*518 FILLER_106_77
*519 FILLER_106_83
*520 FILLER_106_85
*521 FILLER_106_97
*522 FILLER_107_105
*523 FILLER_107_111
*524 FILLER_107_113
*525 FILLER_107_125
*526 FILLER_107_137
*527 FILLER_107_149
*528 FILLER_107_15
*529 FILLER_107_161
*530 FILLER_107_167
*531 FILLER_107_169
*532 FILLER_107_181
*533 FILLER_107_193
*534 FILLER_107_205
*535 FILLER_107_217
*536 FILLER_107_223
*537 FILLER_107_225
*538 FILLER_107_237
*539 FILLER_107_249
*540 FILLER_107_261
*541 FILLER_107_27
*542 FILLER_107_273
*543 FILLER_107_279
*544 FILLER_107_281
*545 FILLER_107_293
*546 FILLER_107_3
*547 FILLER_107_305
*548 FILLER_107_317
*549 FILLER_107_329
*550 FILLER_107_335
*551 FILLER_107_337
*552 FILLER_107_349
*553 FILLER_107_361
*554 FILLER_107_373
*555 FILLER_107_385
*556 FILLER_107_39
*557 FILLER_107_391
*558 FILLER_107_393
*559 FILLER_107_405
*560 FILLER_107_417
*561 FILLER_107_429
*562 FILLER_107_441
*563 FILLER_107_447
*564 FILLER_107_449
*565 FILLER_107_461
*566 FILLER_107_473
*567 FILLER_107_485
*568 FILLER_107_497
*569 FILLER_107_503
*570 FILLER_107_505
*571 FILLER_107_51
*572 FILLER_107_517
*573 FILLER_107_529
*574 FILLER_107_541
*575 FILLER_107_55
*576 FILLER_107_553
*577 FILLER_107_559
*578 FILLER_107_561
*579 FILLER_107_57
*580 FILLER_107_573
*581 FILLER_107_585
*582 FILLER_107_597
*583 FILLER_107_609
*584 FILLER_107_615
*585 FILLER_107_617
*586 FILLER_107_629
*587 FILLER_107_69
*588 FILLER_107_81
*589 FILLER_107_93
*590 FILLER_108_109
*591 FILLER_108_121
*592 FILLER_108_133
*593 FILLER_108_139
*594 FILLER_108_141
*595 FILLER_108_15
*596 FILLER_108_153
*597 FILLER_108_165
*598 FILLER_108_177
*599 FILLER_108_189
*600 FILLER_108_195
*601 FILLER_108_197
*602 FILLER_108_209
*603 FILLER_108_221
*604 FILLER_108_233
*605 FILLER_108_245
*606 FILLER_108_251
*607 FILLER_108_253
*608 FILLER_108_265
*609 FILLER_108_27
*610 FILLER_108_277
*611 FILLER_108_289
*612 FILLER_108_29
*613 FILLER_108_3
*614 FILLER_108_301
*615 FILLER_108_307
*616 FILLER_108_309
*617 FILLER_108_321
*618 FILLER_108_333
*619 FILLER_108_345
*620 FILLER_108_357
*621 FILLER_108_363
*622 FILLER_108_365
*623 FILLER_108_377
*624 FILLER_108_389
*625 FILLER_108_401
*626 FILLER_108_41
*627 FILLER_108_413
*628 FILLER_108_419
*629 FILLER_108_421
*630 FILLER_108_433
*631 FILLER_108_445
*632 FILLER_108_457
*633 FILLER_108_469
*634 FILLER_108_475
*635 FILLER_108_477
*636 FILLER_108_489
*637 FILLER_108_501
*638 FILLER_108_513
*639 FILLER_108_525
*640 FILLER_108_53
*641 FILLER_108_531
*642 FILLER_108_533
*643 FILLER_108_545
*644 FILLER_108_557
*645 FILLER_108_569
*646 FILLER_108_581
*647 FILLER_108_587
*648 FILLER_108_589
*649 FILLER_108_601
*650 FILLER_108_613
*651 FILLER_108_625
*652 FILLER_108_637
*653 FILLER_108_643
*654 FILLER_108_645
*655 FILLER_108_65
*656 FILLER_108_77
*657 FILLER_108_83
*658 FILLER_108_85
*659 FILLER_108_97
*660 FILLER_109_111
*661 FILLER_109_113
*662 FILLER_109_12
*663 FILLER_109_125
*664 FILLER_109_137
*665 FILLER_109_141
*666 FILLER_109_153
*667 FILLER_109_165
*668 FILLER_109_169
*669 FILLER_109_177
*670 FILLER_109_181
*671 FILLER_109_193
*672 FILLER_109_197
*673 FILLER_109_209
*674 FILLER_109_223
*675 FILLER_109_225
*676 FILLER_109_237
*677 FILLER_109_24
*678 FILLER_109_249
*679 FILLER_109_253
*680 FILLER_109_258
*681 FILLER_109_270
*682 FILLER_109_278
*683 FILLER_109_281
*684 FILLER_109_289
*685 FILLER_109_29
*686 FILLER_109_293
*687 FILLER_109_305
*688 FILLER_109_309
*689 FILLER_109_321
*690 FILLER_109_329
*691 FILLER_109_335
*692 FILLER_109_337
*693 FILLER_109_349
*694 FILLER_109_361
*695 FILLER_109_365
*696 FILLER_109_370
*697 FILLER_109_382
*698 FILLER_109_390
*699 FILLER_109_393
*700 FILLER_109_401
*701 FILLER_109_406
*702 FILLER_109_41
*703 FILLER_109_418
*704 FILLER_109_421
*705 FILLER_109_433
*706 FILLER_109_447
*707 FILLER_109_449
*708 FILLER_109_461
*709 FILLER_109_473
*710 FILLER_109_477
*711 FILLER_109_483
*712 FILLER_109_495
*713 FILLER_109_503
*714 FILLER_109_505
*715 FILLER_109_513
*716 FILLER_109_518
*717 FILLER_109_53
*718 FILLER_109_530
*719 FILLER_109_533
*720 FILLER_109_545
*721 FILLER_109_559
*722 FILLER_109_561
*723 FILLER_109_57
*724 FILLER_109_573
*725 FILLER_109_585
*726 FILLER_109_589
*727 FILLER_109_594
*728 FILLER_109_606
*729 FILLER_109_614
*730 FILLER_109_617
*731 FILLER_109_625
*732 FILLER_109_630
*733 FILLER_109_642
*734 FILLER_109_645
*735 FILLER_109_65
*736 FILLER_109_70
*737 FILLER_109_82
*738 FILLER_109_85
*739 FILLER_109_97
*740 FILLER_10_109
*741 FILLER_10_121
*742 FILLER_10_133
*743 FILLER_10_139
*744 FILLER_10_141
*745 FILLER_10_15
*746 FILLER_10_153
*747 FILLER_10_165
*748 FILLER_10_177
*749 FILLER_10_189
*750 FILLER_10_195
*751 FILLER_10_197
*752 FILLER_10_209
*753 FILLER_10_221
*754 FILLER_10_233
*755 FILLER_10_245
*756 FILLER_10_251
*757 FILLER_10_253
*758 FILLER_10_265
*759 FILLER_10_27
*760 FILLER_10_277
*761 FILLER_10_289
*762 FILLER_10_29
*763 FILLER_10_3
*764 FILLER_10_301
*765 FILLER_10_307
*766 FILLER_10_309
*767 FILLER_10_321
*768 FILLER_10_333
*769 FILLER_10_345
*770 FILLER_10_357
*771 FILLER_10_363
*772 FILLER_10_365
*773 FILLER_10_377
*774 FILLER_10_389
*775 FILLER_10_401
*776 FILLER_10_41
*777 FILLER_10_413
*778 FILLER_10_419
*779 FILLER_10_421
*780 FILLER_10_433
*781 FILLER_10_445
*782 FILLER_10_457
*783 FILLER_10_469
*784 FILLER_10_475
*785 FILLER_10_477
*786 FILLER_10_489
*787 FILLER_10_501
*788 FILLER_10_513
*789 FILLER_10_525
*790 FILLER_10_53
*791 FILLER_10_531
*792 FILLER_10_533
*793 FILLER_10_545
*794 FILLER_10_557
*795 FILLER_10_569
*796 FILLER_10_581
*797 FILLER_10_587
*798 FILLER_10_589
*799 FILLER_10_601
*800 FILLER_10_613
*801 FILLER_10_625
*802 FILLER_10_637
*803 FILLER_10_643
*804 FILLER_10_645
*805 FILLER_10_65
*806 FILLER_10_77
*807 FILLER_10_83
*808 FILLER_10_85
*809 FILLER_10_97
*810 FILLER_11_105
*811 FILLER_11_111
*812 FILLER_11_113
*813 FILLER_11_125
*814 FILLER_11_137
*815 FILLER_11_149
*816 FILLER_11_15
*817 FILLER_11_161
*818 FILLER_11_167
*819 FILLER_11_169
*820 FILLER_11_181
*821 FILLER_11_193
*822 FILLER_11_205
*823 FILLER_11_217
*824 FILLER_11_223
*825 FILLER_11_225
*826 FILLER_11_237
*827 FILLER_11_249
*828 FILLER_11_261
*829 FILLER_11_27
*830 FILLER_11_273
*831 FILLER_11_279
*832 FILLER_11_281
*833 FILLER_11_293
*834 FILLER_11_3
*835 FILLER_11_305
*836 FILLER_11_317
*837 FILLER_11_329
*838 FILLER_11_335
*839 FILLER_11_337
*840 FILLER_11_349
*841 FILLER_11_361
*842 FILLER_11_373
*843 FILLER_11_385
*844 FILLER_11_39
*845 FILLER_11_391
*846 FILLER_11_393
*847 FILLER_11_405
*848 FILLER_11_417
*849 FILLER_11_429
*850 FILLER_11_441
*851 FILLER_11_447
*852 FILLER_11_449
*853 FILLER_11_461
*854 FILLER_11_473
*855 FILLER_11_485
*856 FILLER_11_497
*857 FILLER_11_503
*858 FILLER_11_505
*859 FILLER_11_51
*860 FILLER_11_517
*861 FILLER_11_529
*862 FILLER_11_541
*863 FILLER_11_55
*864 FILLER_11_553
*865 FILLER_11_559
*866 FILLER_11_561
*867 FILLER_11_57
*868 FILLER_11_573
*869 FILLER_11_585
*870 FILLER_11_597
*871 FILLER_11_609
*872 FILLER_11_615
*873 FILLER_11_617
*874 FILLER_11_629
*875 FILLER_11_641
*876 FILLER_11_649
*877 FILLER_11_69
*878 FILLER_11_81
*879 FILLER_11_93
*880 FILLER_12_109
*881 FILLER_12_121
*882 FILLER_12_133
*883 FILLER_12_139
*884 FILLER_12_141
*885 FILLER_12_15
*886 FILLER_12_153
*887 FILLER_12_165
*888 FILLER_12_177
*889 FILLER_12_189
*890 FILLER_12_195
*891 FILLER_12_197
*892 FILLER_12_209
*893 FILLER_12_221
*894 FILLER_12_233
*895 FILLER_12_245
*896 FILLER_12_251
*897 FILLER_12_253
*898 FILLER_12_265
*899 FILLER_12_27
*900 FILLER_12_277
*901 FILLER_12_289
*902 FILLER_12_29
*903 FILLER_12_3
*904 FILLER_12_301
*905 FILLER_12_307
*906 FILLER_12_309
*907 FILLER_12_321
*908 FILLER_12_333
*909 FILLER_12_345
*910 FILLER_12_357
*911 FILLER_12_363
*912 FILLER_12_365
*913 FILLER_12_377
*914 FILLER_12_389
*915 FILLER_12_401
*916 FILLER_12_41
*917 FILLER_12_413
*918 FILLER_12_419
*919 FILLER_12_421
*920 FILLER_12_433
*921 FILLER_12_445
*922 FILLER_12_457
*923 FILLER_12_469
*924 FILLER_12_475
*925 FILLER_12_477
*926 FILLER_12_489
*927 FILLER_12_501
*928 FILLER_12_513
*929 FILLER_12_525
*930 FILLER_12_53
*931 FILLER_12_531
*932 FILLER_12_533
*933 FILLER_12_545
*934 FILLER_12_557
*935 FILLER_12_569
*936 FILLER_12_581
*937 FILLER_12_587
*938 FILLER_12_589
*939 FILLER_12_601
*940 FILLER_12_613
*941 FILLER_12_625
*942 FILLER_12_637
*943 FILLER_12_643
*944 FILLER_12_645
*945 FILLER_12_65
*946 FILLER_12_77
*947 FILLER_12_83
*948 FILLER_12_85
*949 FILLER_12_97
*950 FILLER_13_105
*951 FILLER_13_111
*952 FILLER_13_113
*953 FILLER_13_125
*954 FILLER_13_137
*955 FILLER_13_149
*956 FILLER_13_15
*957 FILLER_13_161
*958 FILLER_13_167
*959 FILLER_13_169
*960 FILLER_13_181
*961 FILLER_13_193
*962 FILLER_13_205
*963 FILLER_13_217
*964 FILLER_13_223
*965 FILLER_13_225
*966 FILLER_13_237
*967 FILLER_13_249
*968 FILLER_13_261
*969 FILLER_13_27
*970 FILLER_13_273
*971 FILLER_13_279
*972 FILLER_13_281
*973 FILLER_13_293
*974 FILLER_13_3
*975 FILLER_13_305
*976 FILLER_13_317
*977 FILLER_13_329
*978 FILLER_13_335
*979 FILLER_13_337
*980 FILLER_13_349
*981 FILLER_13_361
*982 FILLER_13_373
*983 FILLER_13_385
*984 FILLER_13_39
*985 FILLER_13_391
*986 FILLER_13_393
*987 FILLER_13_405
*988 FILLER_13_417
*989 FILLER_13_429
*990 FILLER_13_441
*991 FILLER_13_447
*992 FILLER_13_449
*993 FILLER_13_461
*994 FILLER_13_473
*995 FILLER_13_485
*996 FILLER_13_497
*997 FILLER_13_503
*998 FILLER_13_505
*999 FILLER_13_51
*1000 FILLER_13_517
*1001 FILLER_13_529
*1002 FILLER_13_541
*1003 FILLER_13_55
*1004 FILLER_13_553
*1005 FILLER_13_559
*1006 FILLER_13_561
*1007 FILLER_13_57
*1008 FILLER_13_573
*1009 FILLER_13_585
*1010 FILLER_13_597
*1011 FILLER_13_609
*1012 FILLER_13_615
*1013 FILLER_13_617
*1014 FILLER_13_629
*1015 FILLER_13_641
*1016 FILLER_13_649
*1017 FILLER_13_69
*1018 FILLER_13_81
*1019 FILLER_13_93
*1020 FILLER_14_109
*1021 FILLER_14_121
*1022 FILLER_14_133
*1023 FILLER_14_139
*1024 FILLER_14_141
*1025 FILLER_14_15
*1026 FILLER_14_153
*1027 FILLER_14_165
*1028 FILLER_14_177
*1029 FILLER_14_189
*1030 FILLER_14_195
*1031 FILLER_14_197
*1032 FILLER_14_209
*1033 FILLER_14_221
*1034 FILLER_14_233
*1035 FILLER_14_245
*1036 FILLER_14_251
*1037 FILLER_14_253
*1038 FILLER_14_265
*1039 FILLER_14_27
*1040 FILLER_14_277
*1041 FILLER_14_289
*1042 FILLER_14_29
*1043 FILLER_14_3
*1044 FILLER_14_301
*1045 FILLER_14_307
*1046 FILLER_14_309
*1047 FILLER_14_321
*1048 FILLER_14_333
*1049 FILLER_14_345
*1050 FILLER_14_357
*1051 FILLER_14_363
*1052 FILLER_14_365
*1053 FILLER_14_377
*1054 FILLER_14_389
*1055 FILLER_14_401
*1056 FILLER_14_41
*1057 FILLER_14_413
*1058 FILLER_14_419
*1059 FILLER_14_421
*1060 FILLER_14_433
*1061 FILLER_14_445
*1062 FILLER_14_457
*1063 FILLER_14_469
*1064 FILLER_14_475
*1065 FILLER_14_477
*1066 FILLER_14_489
*1067 FILLER_14_501
*1068 FILLER_14_513
*1069 FILLER_14_525
*1070 FILLER_14_53
*1071 FILLER_14_531
*1072 FILLER_14_533
*1073 FILLER_14_545
*1074 FILLER_14_557
*1075 FILLER_14_569
*1076 FILLER_14_581
*1077 FILLER_14_587
*1078 FILLER_14_589
*1079 FILLER_14_601
*1080 FILLER_14_613
*1081 FILLER_14_625
*1082 FILLER_14_637
*1083 FILLER_14_643
*1084 FILLER_14_645
*1085 FILLER_14_65
*1086 FILLER_14_77
*1087 FILLER_14_83
*1088 FILLER_14_85
*1089 FILLER_14_97
*1090 FILLER_15_105
*1091 FILLER_15_111
*1092 FILLER_15_113
*1093 FILLER_15_125
*1094 FILLER_15_137
*1095 FILLER_15_149
*1096 FILLER_15_161
*1097 FILLER_15_167
*1098 FILLER_15_169
*1099 FILLER_15_181
*1100 FILLER_15_19
*1101 FILLER_15_193
*1102 FILLER_15_205
*1103 FILLER_15_217
*1104 FILLER_15_223
*1105 FILLER_15_225
*1106 FILLER_15_237
*1107 FILLER_15_249
*1108 FILLER_15_261
*1109 FILLER_15_273
*1110 FILLER_15_279
*1111 FILLER_15_281
*1112 FILLER_15_293
*1113 FILLER_15_305
*1114 FILLER_15_31
*1115 FILLER_15_317
*1116 FILLER_15_329
*1117 FILLER_15_335
*1118 FILLER_15_337
*1119 FILLER_15_349
*1120 FILLER_15_361
*1121 FILLER_15_373
*1122 FILLER_15_385
*1123 FILLER_15_391
*1124 FILLER_15_393
*1125 FILLER_15_405
*1126 FILLER_15_417
*1127 FILLER_15_429
*1128 FILLER_15_43
*1129 FILLER_15_441
*1130 FILLER_15_447
*1131 FILLER_15_449
*1132 FILLER_15_461
*1133 FILLER_15_473
*1134 FILLER_15_485
*1135 FILLER_15_497
*1136 FILLER_15_503
*1137 FILLER_15_505
*1138 FILLER_15_517
*1139 FILLER_15_529
*1140 FILLER_15_541
*1141 FILLER_15_55
*1142 FILLER_15_553
*1143 FILLER_15_559
*1144 FILLER_15_561
*1145 FILLER_15_57
*1146 FILLER_15_573
*1147 FILLER_15_585
*1148 FILLER_15_597
*1149 FILLER_15_609
*1150 FILLER_15_615
*1151 FILLER_15_617
*1152 FILLER_15_629
*1153 FILLER_15_641
*1154 FILLER_15_69
*1155 FILLER_15_7
*1156 FILLER_15_81
*1157 FILLER_15_93
*1158 FILLER_16_109
*1159 FILLER_16_121
*1160 FILLER_16_133
*1161 FILLER_16_139
*1162 FILLER_16_141
*1163 FILLER_16_15
*1164 FILLER_16_153
*1165 FILLER_16_165
*1166 FILLER_16_177
*1167 FILLER_16_189
*1168 FILLER_16_195
*1169 FILLER_16_197
*1170 FILLER_16_209
*1171 FILLER_16_221
*1172 FILLER_16_233
*1173 FILLER_16_245
*1174 FILLER_16_251
*1175 FILLER_16_253
*1176 FILLER_16_265
*1177 FILLER_16_27
*1178 FILLER_16_277
*1179 FILLER_16_289
*1180 FILLER_16_29
*1181 FILLER_16_3
*1182 FILLER_16_301
*1183 FILLER_16_307
*1184 FILLER_16_309
*1185 FILLER_16_321
*1186 FILLER_16_333
*1187 FILLER_16_345
*1188 FILLER_16_357
*1189 FILLER_16_363
*1190 FILLER_16_365
*1191 FILLER_16_377
*1192 FILLER_16_389
*1193 FILLER_16_401
*1194 FILLER_16_41
*1195 FILLER_16_413
*1196 FILLER_16_419
*1197 FILLER_16_421
*1198 FILLER_16_433
*1199 FILLER_16_445
*1200 FILLER_16_457
*1201 FILLER_16_469
*1202 FILLER_16_475
*1203 FILLER_16_477
*1204 FILLER_16_489
*1205 FILLER_16_501
*1206 FILLER_16_513
*1207 FILLER_16_525
*1208 FILLER_16_53
*1209 FILLER_16_531
*1210 FILLER_16_533
*1211 FILLER_16_545
*1212 FILLER_16_557
*1213 FILLER_16_569
*1214 FILLER_16_581
*1215 FILLER_16_587
*1216 FILLER_16_589
*1217 FILLER_16_601
*1218 FILLER_16_613
*1219 FILLER_16_625
*1220 FILLER_16_637
*1221 FILLER_16_643
*1222 FILLER_16_645
*1223 FILLER_16_65
*1224 FILLER_16_77
*1225 FILLER_16_83
*1226 FILLER_16_85
*1227 FILLER_16_97
*1228 FILLER_17_105
*1229 FILLER_17_111
*1230 FILLER_17_113
*1231 FILLER_17_125
*1232 FILLER_17_137
*1233 FILLER_17_149
*1234 FILLER_17_15
*1235 FILLER_17_161
*1236 FILLER_17_167
*1237 FILLER_17_169
*1238 FILLER_17_181
*1239 FILLER_17_193
*1240 FILLER_17_205
*1241 FILLER_17_217
*1242 FILLER_17_223
*1243 FILLER_17_225
*1244 FILLER_17_237
*1245 FILLER_17_249
*1246 FILLER_17_261
*1247 FILLER_17_27
*1248 FILLER_17_273
*1249 FILLER_17_279
*1250 FILLER_17_281
*1251 FILLER_17_293
*1252 FILLER_17_3
*1253 FILLER_17_305
*1254 FILLER_17_317
*1255 FILLER_17_329
*1256 FILLER_17_335
*1257 FILLER_17_337
*1258 FILLER_17_349
*1259 FILLER_17_361
*1260 FILLER_17_373
*1261 FILLER_17_385
*1262 FILLER_17_39
*1263 FILLER_17_391
*1264 FILLER_17_393
*1265 FILLER_17_405
*1266 FILLER_17_417
*1267 FILLER_17_429
*1268 FILLER_17_441
*1269 FILLER_17_447
*1270 FILLER_17_449
*1271 FILLER_17_461
*1272 FILLER_17_473
*1273 FILLER_17_485
*1274 FILLER_17_497
*1275 FILLER_17_503
*1276 FILLER_17_505
*1277 FILLER_17_51
*1278 FILLER_17_517
*1279 FILLER_17_529
*1280 FILLER_17_541
*1281 FILLER_17_55
*1282 FILLER_17_553
*1283 FILLER_17_559
*1284 FILLER_17_561
*1285 FILLER_17_57
*1286 FILLER_17_573
*1287 FILLER_17_585
*1288 FILLER_17_597
*1289 FILLER_17_609
*1290 FILLER_17_615
*1291 FILLER_17_617
*1292 FILLER_17_629
*1293 FILLER_17_641
*1294 FILLER_17_649
*1295 FILLER_17_69
*1296 FILLER_17_81
*1297 FILLER_17_93
*1298 FILLER_18_109
*1299 FILLER_18_121
*1300 FILLER_18_133
*1301 FILLER_18_139
*1302 FILLER_18_141
*1303 FILLER_18_15
*1304 FILLER_18_153
*1305 FILLER_18_165
*1306 FILLER_18_177
*1307 FILLER_18_189
*1308 FILLER_18_195
*1309 FILLER_18_197
*1310 FILLER_18_209
*1311 FILLER_18_221
*1312 FILLER_18_233
*1313 FILLER_18_245
*1314 FILLER_18_251
*1315 FILLER_18_253
*1316 FILLER_18_265
*1317 FILLER_18_27
*1318 FILLER_18_277
*1319 FILLER_18_289
*1320 FILLER_18_29
*1321 FILLER_18_3
*1322 FILLER_18_301
*1323 FILLER_18_307
*1324 FILLER_18_309
*1325 FILLER_18_321
*1326 FILLER_18_333
*1327 FILLER_18_345
*1328 FILLER_18_357
*1329 FILLER_18_363
*1330 FILLER_18_365
*1331 FILLER_18_377
*1332 FILLER_18_389
*1333 FILLER_18_401
*1334 FILLER_18_41
*1335 FILLER_18_413
*1336 FILLER_18_419
*1337 FILLER_18_421
*1338 FILLER_18_433
*1339 FILLER_18_445
*1340 FILLER_18_457
*1341 FILLER_18_469
*1342 FILLER_18_475
*1343 FILLER_18_477
*1344 FILLER_18_489
*1345 FILLER_18_501
*1346 FILLER_18_513
*1347 FILLER_18_525
*1348 FILLER_18_53
*1349 FILLER_18_531
*1350 FILLER_18_533
*1351 FILLER_18_545
*1352 FILLER_18_557
*1353 FILLER_18_569
*1354 FILLER_18_581
*1355 FILLER_18_587
*1356 FILLER_18_589
*1357 FILLER_18_601
*1358 FILLER_18_613
*1359 FILLER_18_625
*1360 FILLER_18_637
*1361 FILLER_18_643
*1362 FILLER_18_645
*1363 FILLER_18_65
*1364 FILLER_18_77
*1365 FILLER_18_83
*1366 FILLER_18_85
*1367 FILLER_18_97
*1368 FILLER_19_105
*1369 FILLER_19_111
*1370 FILLER_19_113
*1371 FILLER_19_125
*1372 FILLER_19_137
*1373 FILLER_19_149
*1374 FILLER_19_15
*1375 FILLER_19_161
*1376 FILLER_19_167
*1377 FILLER_19_169
*1378 FILLER_19_181
*1379 FILLER_19_193
*1380 FILLER_19_205
*1381 FILLER_19_217
*1382 FILLER_19_223
*1383 FILLER_19_225
*1384 FILLER_19_237
*1385 FILLER_19_249
*1386 FILLER_19_261
*1387 FILLER_19_27
*1388 FILLER_19_273
*1389 FILLER_19_279
*1390 FILLER_19_281
*1391 FILLER_19_293
*1392 FILLER_19_3
*1393 FILLER_19_305
*1394 FILLER_19_317
*1395 FILLER_19_329
*1396 FILLER_19_335
*1397 FILLER_19_337
*1398 FILLER_19_349
*1399 FILLER_19_361
*1400 FILLER_19_373
*1401 FILLER_19_385
*1402 FILLER_19_39
*1403 FILLER_19_391
*1404 FILLER_19_393
*1405 FILLER_19_405
*1406 FILLER_19_417
*1407 FILLER_19_429
*1408 FILLER_19_441
*1409 FILLER_19_447
*1410 FILLER_19_449
*1411 FILLER_19_461
*1412 FILLER_19_473
*1413 FILLER_19_485
*1414 FILLER_19_497
*1415 FILLER_19_503
*1416 FILLER_19_505
*1417 FILLER_19_51
*1418 FILLER_19_517
*1419 FILLER_19_529
*1420 FILLER_19_541
*1421 FILLER_19_55
*1422 FILLER_19_553
*1423 FILLER_19_559
*1424 FILLER_19_561
*1425 FILLER_19_57
*1426 FILLER_19_573
*1427 FILLER_19_585
*1428 FILLER_19_597
*1429 FILLER_19_609
*1430 FILLER_19_615
*1431 FILLER_19_617
*1432 FILLER_19_629
*1433 FILLER_19_641
*1434 FILLER_19_649
*1435 FILLER_19_69
*1436 FILLER_19_81
*1437 FILLER_19_93
*1438 FILLER_1_105
*1439 FILLER_1_111
*1440 FILLER_1_113
*1441 FILLER_1_125
*1442 FILLER_1_137
*1443 FILLER_1_149
*1444 FILLER_1_15
*1445 FILLER_1_161
*1446 FILLER_1_167
*1447 FILLER_1_169
*1448 FILLER_1_181
*1449 FILLER_1_193
*1450 FILLER_1_205
*1451 FILLER_1_217
*1452 FILLER_1_223
*1453 FILLER_1_225
*1454 FILLER_1_237
*1455 FILLER_1_249
*1456 FILLER_1_261
*1457 FILLER_1_27
*1458 FILLER_1_273
*1459 FILLER_1_279
*1460 FILLER_1_281
*1461 FILLER_1_293
*1462 FILLER_1_3
*1463 FILLER_1_305
*1464 FILLER_1_317
*1465 FILLER_1_329
*1466 FILLER_1_335
*1467 FILLER_1_337
*1468 FILLER_1_349
*1469 FILLER_1_361
*1470 FILLER_1_373
*1471 FILLER_1_385
*1472 FILLER_1_39
*1473 FILLER_1_391
*1474 FILLER_1_393
*1475 FILLER_1_405
*1476 FILLER_1_417
*1477 FILLER_1_429
*1478 FILLER_1_441
*1479 FILLER_1_447
*1480 FILLER_1_449
*1481 FILLER_1_461
*1482 FILLER_1_473
*1483 FILLER_1_485
*1484 FILLER_1_497
*1485 FILLER_1_503
*1486 FILLER_1_505
*1487 FILLER_1_51
*1488 FILLER_1_517
*1489 FILLER_1_529
*1490 FILLER_1_541
*1491 FILLER_1_55
*1492 FILLER_1_553
*1493 FILLER_1_559
*1494 FILLER_1_561
*1495 FILLER_1_57
*1496 FILLER_1_573
*1497 FILLER_1_585
*1498 FILLER_1_597
*1499 FILLER_1_609
*1500 FILLER_1_615
*1501 FILLER_1_617
*1502 FILLER_1_629
*1503 FILLER_1_69
*1504 FILLER_1_81
*1505 FILLER_1_93
*1506 FILLER_20_109
*1507 FILLER_20_121
*1508 FILLER_20_133
*1509 FILLER_20_139
*1510 FILLER_20_141
*1511 FILLER_20_15
*1512 FILLER_20_153
*1513 FILLER_20_165
*1514 FILLER_20_177
*1515 FILLER_20_189
*1516 FILLER_20_195
*1517 FILLER_20_197
*1518 FILLER_20_209
*1519 FILLER_20_221
*1520 FILLER_20_233
*1521 FILLER_20_245
*1522 FILLER_20_251
*1523 FILLER_20_253
*1524 FILLER_20_265
*1525 FILLER_20_27
*1526 FILLER_20_277
*1527 FILLER_20_289
*1528 FILLER_20_29
*1529 FILLER_20_3
*1530 FILLER_20_301
*1531 FILLER_20_307
*1532 FILLER_20_309
*1533 FILLER_20_321
*1534 FILLER_20_333
*1535 FILLER_20_345
*1536 FILLER_20_357
*1537 FILLER_20_363
*1538 FILLER_20_365
*1539 FILLER_20_377
*1540 FILLER_20_389
*1541 FILLER_20_401
*1542 FILLER_20_41
*1543 FILLER_20_413
*1544 FILLER_20_419
*1545 FILLER_20_421
*1546 FILLER_20_433
*1547 FILLER_20_445
*1548 FILLER_20_457
*1549 FILLER_20_469
*1550 FILLER_20_475
*1551 FILLER_20_477
*1552 FILLER_20_489
*1553 FILLER_20_501
*1554 FILLER_20_513
*1555 FILLER_20_525
*1556 FILLER_20_53
*1557 FILLER_20_531
*1558 FILLER_20_533
*1559 FILLER_20_545
*1560 FILLER_20_557
*1561 FILLER_20_569
*1562 FILLER_20_581
*1563 FILLER_20_587
*1564 FILLER_20_589
*1565 FILLER_20_601
*1566 FILLER_20_613
*1567 FILLER_20_625
*1568 FILLER_20_637
*1569 FILLER_20_643
*1570 FILLER_20_645
*1571 FILLER_20_65
*1572 FILLER_20_77
*1573 FILLER_20_83
*1574 FILLER_20_85
*1575 FILLER_20_97
*1576 FILLER_21_105
*1577 FILLER_21_111
*1578 FILLER_21_113
*1579 FILLER_21_125
*1580 FILLER_21_137
*1581 FILLER_21_149
*1582 FILLER_21_15
*1583 FILLER_21_161
*1584 FILLER_21_167
*1585 FILLER_21_169
*1586 FILLER_21_181
*1587 FILLER_21_193
*1588 FILLER_21_205
*1589 FILLER_21_217
*1590 FILLER_21_223