* NGSPICE file created from manual_macro_placement_test.ext - technology: sky130A

* Black-box entry subcircuit for sky130_ef_sc_hd__decap_12 abstract view
.subckt sky130_ef_sc_hd__decap_12 VGND VPWR VPB VNB
.ends

* Black-box entry subcircuit for sky130_fd_sc_hd__decap_4 abstract view
.subckt sky130_fd_sc_hd__decap_4 VGND VNB VPB VPWR
.ends

* Black-box entry subcircuit for sky130_fd_sc_hd__fill_1 abstract view
.subckt sky130_fd_sc_hd__fill_1 VGND VNB VPB VPWR
.ends

* Black-box entry subcircuit for sky130_fd_sc_hd__decap_6 abstract view
.subckt sky130_fd_sc_hd__decap_6 VGND VNB VPB VPWR
.ends

* Black-box entry subcircuit for sky130_fd_sc_hd__tapvpwrvgnd_1 abstract view
.subckt sky130_fd_sc_hd__tapvpwrvgnd_1 VGND VPWR
.ends

* Black-box entry subcircuit for sky130_fd_sc_hd__decap_3 abstract view
.subckt sky130_fd_sc_hd__decap_3 VGND VNB VPB VPWR
.ends

* Black-box entry subcircuit for sky130_fd_sc_hd__fill_2 abstract view
.subckt sky130_fd_sc_hd__fill_2 VGND VNB VPB VPWR
.ends

* Black-box entry subcircuit for sky130_fd_sc_hd__decap_8 abstract view
.subckt sky130_fd_sc_hd__decap_8 VGND VNB VPB VPWR
.ends

* Black-box entry subcircuit for sky130_fd_sc_hd__buf_2 abstract view
.subckt sky130_fd_sc_hd__buf_2 A VGND VNB VPB VPWR X
.ends

* Black-box entry subcircuit for sky130_fd_sc_hd__clkbuf_4 abstract view
.subckt sky130_fd_sc_hd__clkbuf_4 A VGND VNB VPB VPWR X
.ends

* Black-box entry subcircuit for sky130_fd_sc_hd__buf_4 abstract view
.subckt sky130_fd_sc_hd__buf_4 A VGND VNB VPB VPWR X
.ends

* Black-box entry subcircuit for sky130_fd_sc_hd__clkbuf_2 abstract view
.subckt sky130_fd_sc_hd__clkbuf_2 A VGND VNB VPB VPWR X
.ends

* Black-box entry subcircuit for spm abstract view
.subckt spm clk p rst x[0] x[10] x[11] x[12] x[13] x[14] x[15] x[16] x[17] x[18] x[19]
+ x[1] x[20] x[21] x[22] x[23] x[24] x[25] x[26] x[27] x[28] x[29] x[2] x[30] x[31]
+ x[3] x[4] x[5] x[6] x[7] x[8] x[9] y VPWR VGND
.ends

* Black-box entry subcircuit for sky130_fd_sc_hd__buf_6 abstract view
.subckt sky130_fd_sc_hd__buf_6 A VGND VNB VPB VPWR X
.ends

* Black-box entry subcircuit for sky130_fd_sc_hd__dlymetal6s2s_1 abstract view
.subckt sky130_fd_sc_hd__dlymetal6s2s_1 A VGND VNB VPB VPWR X
.ends

* Black-box entry subcircuit for sky130_fd_sc_hd__clkbuf_1 abstract view
.subckt sky130_fd_sc_hd__clkbuf_1 A VGND VNB VPB VPWR X
.ends

* Black-box entry subcircuit for sky130_fd_sc_hd__clkbuf_8 abstract view
.subckt sky130_fd_sc_hd__clkbuf_8 A VGND VNB VPB VPWR X
.ends

.subckt manual_macro_placement_test VGND VPWR clk1 clk2 p1 p2 rst1 rst2 x1[0] x1[10]
+ x1[11] x1[12] x1[13] x1[14] x1[15] x1[16] x1[17] x1[18] x1[19] x1[1] x1[20] x1[21]
+ x1[22] x1[23] x1[24] x1[25] x1[26] x1[27] x1[28] x1[29] x1[2] x1[30] x1[31] x1[3]
+ x1[4] x1[5] x1[6] x1[7] x1[8] x1[9] x2[0] x2[10] x2[11] x2[12] x2[13] x2[14] x2[15]
+ x2[16] x2[17] x2[18] x2[19] x2[1] x2[20] x2[21] x2[22] x2[23] x2[24] x2[25] x2[26]
+ x2[27] x2[28] x2[29] x2[2] x2[30] x2[31] x2[3] x2[4] x2[5] x2[6] x2[7] x2[8] x2[9]
+ y1 y2
XFILLER_41_1205 VGND VPWR VPWR VGND sky130_ef_sc_hd__decap_12
XFILLER_55_715 VGND VGND VPWR VPWR sky130_fd_sc_hd__decap_4
XFILLER_27_417 VGND VPWR VPWR VGND sky130_ef_sc_hd__decap_12
XFILLER_95_895 VGND VGND VPWR VPWR sky130_fd_sc_hd__fill_1
XFILLER_39_288 VGND VPWR VPWR VGND sky130_ef_sc_hd__decap_12
XFILLER_36_973 VGND VPWR VPWR VGND sky130_ef_sc_hd__decap_12
XFILLER_70_729 VGND VPWR VPWR VGND sky130_ef_sc_hd__decap_12
XFILLER_51_943 VGND VGND VPWR VPWR sky130_fd_sc_hd__fill_1
XFILLER_39_1167 VGND VGND VPWR VPWR sky130_fd_sc_hd__fill_1
XFILLER_165_1175 VGND VGND VPWR VPWR sky130_fd_sc_hd__fill_1
XFILLER_196_937 VGND VPWR VPWR VGND sky130_ef_sc_hd__decap_12
XFILLER_22_133 VGND VGND VPWR VPWR sky130_fd_sc_hd__decap_6
XFILLER_167_105 VGND VGND VPWR VPWR sky130_fd_sc_hd__decap_6
XFILLER_168_29 VGND VPWR VPWR VGND sky130_ef_sc_hd__decap_12
XFILLER_195_447 VGND VGND VPWR VPWR sky130_fd_sc_hd__fill_1
XFILLER_206_1161 VGND VPWR VPWR VGND sky130_ef_sc_hd__decap_12
XFILLER_22_177 VGND VPWR VPWR VGND sky130_ef_sc_hd__decap_12
XFILLER_167_149 VGND VPWR VPWR VGND sky130_ef_sc_hd__decap_12
XFILLER_183_609 VGND VGND VPWR VPWR sky130_fd_sc_hd__decap_6
XFILLER_149_853 VGND VPWR VPWR VGND sky130_ef_sc_hd__decap_12
XFILLER_148_363 VGND VGND VPWR VPWR sky130_fd_sc_hd__fill_1
XFILLER_149_897 VGND VPWR VPWR VGND sky130_ef_sc_hd__decap_12
XFILLER_136_525 VGND VGND VPWR VPWR sky130_fd_sc_hd__decap_6
XFILLER_175_193 VGND VPWR VPWR VGND sky130_ef_sc_hd__decap_12
XFILLER_191_653 VGND VPWR VPWR VGND sky130_ef_sc_hd__decap_12
XFILLER_164_867 VGND VGND VPWR VPWR sky130_fd_sc_hd__fill_1
XFILLER_136_569 VGND VPWR VPWR VGND sky130_ef_sc_hd__decap_12
XFILLER_190_141 VGND VPWR VPWR VGND sky130_ef_sc_hd__decap_12
XFILLER_151_517 VGND VPWR VPWR VGND sky130_ef_sc_hd__decap_12
XFILLER_85_1121 VGND VPWR VPWR VGND sky130_ef_sc_hd__decap_12
XFILLER_117_783 VGND VGND VPWR VPWR sky130_fd_sc_hd__fill_1
XFILLER_191_697 VGND VPWR VPWR VGND sky130_ef_sc_hd__decap_12
XFILLER_89_111 VGND VGND VPWR VPWR sky130_fd_sc_hd__fill_1
XFILLER_105_945 VGND VGND VPWR VPWR sky130_fd_sc_hd__decap_6
XFILLER_7_7 VGND VPWR VPWR VGND sky130_ef_sc_hd__decap_12
XFILLER_117_55 VGND VGND VPWR VPWR sky130_fd_sc_hd__fill_1
XFILLER_104_433 VGND VPWR VPWR VGND sky130_ef_sc_hd__decap_12
XFILLER_105_989 VGND VPWR VPWR VGND sky130_ef_sc_hd__decap_12
XFILLER_78_829 VGND VPWR VPWR VGND sky130_ef_sc_hd__decap_12
XFILLER_104_477 VGND VPWR VPWR VGND sky130_ef_sc_hd__decap_12
XFILLER_120_937 VGND VPWR VPWR VGND sky130_ef_sc_hd__decap_12
XFILLER_133_1119 VGND VGND VPWR VPWR sky130_fd_sc_hd__fill_1
XFILLER_92_309 VGND VPWR VPWR VGND sky130_ef_sc_hd__decap_12
XTAP_3202 VGND VPWR sky130_fd_sc_hd__tapvpwrvgnd_1
XFILLER_85_361 VGND VGND VPWR VPWR sky130_fd_sc_hd__decap_3
XTAP_3213 VGND VPWR sky130_fd_sc_hd__tapvpwrvgnd_1
XTAP_3224 VGND VPWR sky130_fd_sc_hd__tapvpwrvgnd_1
XTAP_3235 VGND VPWR sky130_fd_sc_hd__tapvpwrvgnd_1
XTAP_2501 VGND VPWR sky130_fd_sc_hd__tapvpwrvgnd_1
XFILLER_206_529 VGND VGND VPWR VPWR sky130_fd_sc_hd__decap_3
XTAP_3246 VGND VPWR sky130_fd_sc_hd__tapvpwrvgnd_1
XFILLER_172_3 VGND VPWR VPWR VGND sky130_ef_sc_hd__decap_12
XTAP_2512 VGND VPWR sky130_fd_sc_hd__tapvpwrvgnd_1
XTAP_3257 VGND VPWR sky130_fd_sc_hd__tapvpwrvgnd_1
XFILLER_27_951 VGND VGND VPWR VPWR sky130_fd_sc_hd__fill_1
XFILLER_93_69 VGND VPWR VPWR VGND sky130_ef_sc_hd__decap_12
XTAP_2523 VGND VPWR sky130_fd_sc_hd__tapvpwrvgnd_1
XTAP_3268 VGND VPWR sky130_fd_sc_hd__tapvpwrvgnd_1
XTAP_2534 VGND VPWR sky130_fd_sc_hd__tapvpwrvgnd_1
XTAP_3279 VGND VPWR sky130_fd_sc_hd__tapvpwrvgnd_1
XFILLER_26_41 VGND VPWR VPWR VGND sky130_ef_sc_hd__decap_12
XTAP_1800 VGND VPWR sky130_fd_sc_hd__tapvpwrvgnd_1
XTAP_2545 VGND VPWR sky130_fd_sc_hd__tapvpwrvgnd_1
XTAP_1811 VGND VPWR sky130_fd_sc_hd__tapvpwrvgnd_1
XTAP_2556 VGND VPWR sky130_fd_sc_hd__tapvpwrvgnd_1
XFILLER_14_601 VGND VPWR VPWR VGND sky130_ef_sc_hd__decap_12
XTAP_1822 VGND VPWR sky130_fd_sc_hd__tapvpwrvgnd_1
XTAP_2567 VGND VPWR sky130_fd_sc_hd__tapvpwrvgnd_1
XFILLER_199_753 VGND VPWR VPWR VGND sky130_ef_sc_hd__decap_12
XTAP_1833 VGND VPWR sky130_fd_sc_hd__tapvpwrvgnd_1
XTAP_2578 VGND VPWR sky130_fd_sc_hd__tapvpwrvgnd_1
XFILLER_26_85 VGND VPWR VPWR VGND sky130_ef_sc_hd__decap_12
XTAP_1844 VGND VPWR sky130_fd_sc_hd__tapvpwrvgnd_1
XTAP_2589 VGND VPWR sky130_fd_sc_hd__tapvpwrvgnd_1
XFILLER_202_713 VGND VPWR VPWR VGND sky130_ef_sc_hd__decap_12
XFILLER_14_645 VGND VPWR VPWR VGND sky130_ef_sc_hd__decap_12
XFILLER_13_111 VGND VGND VPWR VPWR sky130_fd_sc_hd__fill_1
XTAP_1855 VGND VPWR sky130_fd_sc_hd__tapvpwrvgnd_1
XTAP_1866 VGND VPWR sky130_fd_sc_hd__tapvpwrvgnd_1
XFILLER_92_1147 VGND VGND VPWR VPWR sky130_fd_sc_hd__fill_1
XFILLER_159_617 VGND VPWR VPWR VGND sky130_ef_sc_hd__decap_12
XFILLER_42_965 VGND VGND VPWR VPWR sky130_fd_sc_hd__decap_6
XFILLER_199_797 VGND VPWR VPWR VGND sky130_ef_sc_hd__decap_12
XTAP_1877 VGND VPWR sky130_fd_sc_hd__tapvpwrvgnd_1
XFILLER_201_223 VGND VGND VPWR VPWR sky130_fd_sc_hd__fill_1
XTAP_1888 VGND VPWR sky130_fd_sc_hd__tapvpwrvgnd_1
XFILLER_202_757 VGND VPWR VPWR VGND sky130_ef_sc_hd__decap_12
XTAP_1899 VGND VPWR sky130_fd_sc_hd__tapvpwrvgnd_1
XFILLER_9_137 VGND VPWR VPWR VGND sky130_ef_sc_hd__decap_12
XFILLER_186_469 VGND VGND VPWR VPWR sky130_fd_sc_hd__decap_6
XFILLER_127_503 VGND VGND VPWR VPWR sky130_fd_sc_hd__fill_1
XFILLER_6_811 VGND VGND VPWR VPWR sky130_fd_sc_hd__fill_1
XFILLER_139_385 VGND VGND VPWR VPWR sky130_fd_sc_hd__decap_6
XFILLER_154_333 VGND VPWR VPWR VGND sky130_ef_sc_hd__decap_12
XFILLER_115_709 VGND VPWR VPWR VGND sky130_ef_sc_hd__decap_12
XFILLER_155_889 VGND VGND VPWR VPWR sky130_fd_sc_hd__decap_6
XFILLER_177_1057 VGND VGND VPWR VPWR sky130_fd_sc_hd__decap_6
XFILLER_154_377 VGND VPWR VPWR VGND sky130_ef_sc_hd__decap_12
XFILLER_170_837 VGND VPWR VPWR VGND sky130_ef_sc_hd__decap_12
XFILLER_107_293 VGND VPWR VPWR VGND sky130_ef_sc_hd__decap_12
XFILLER_123_753 VGND VPWR VPWR VGND sky130_ef_sc_hd__decap_12
XFILLER_174_83 VGND VGND VPWR VPWR sky130_fd_sc_hd__fill_1
XFILLER_123_797 VGND VPWR VPWR VGND sky130_ef_sc_hd__decap_12
XFILLER_96_637 VGND VGND VPWR VPWR sky130_fd_sc_hd__decap_6
XFILLER_7_1121 VGND VPWR VPWR VGND sky130_ef_sc_hd__decap_12
XFILLER_95_125 VGND VPWR VPWR VGND sky130_ef_sc_hd__decap_12
XFILLER_95_169 VGND VPWR VPWR VGND sky130_ef_sc_hd__decap_12
XFILLER_110_469 VGND VGND VPWR VPWR sky130_fd_sc_hd__decap_6
XFILLER_3_1007 VGND VGND VPWR VPWR sky130_fd_sc_hd__fill_1
XFILLER_37_715 VGND VGND VPWR VPWR sky130_fd_sc_hd__decap_4
XFILLER_76_350 VGND VGND VPWR VPWR sky130_fd_sc_hd__decap_4
XFILLER_114_1085 VGND VGND VPWR VPWR sky130_fd_sc_hd__decap_6
XFILLER_58_1009 VGND VPWR VPWR VGND sky130_ef_sc_hd__decap_12
XFILLER_184_1017 VGND VPWR VPWR VGND sky130_ef_sc_hd__decap_12
XFILLER_18_973 VGND VGND VPWR VPWR sky130_fd_sc_hd__decap_6
XFILLER_188_1197 VGND VGND VPWR VPWR sky130_fd_sc_hd__decap_6
XFILLER_52_729 VGND VPWR VPWR VGND sky130_ef_sc_hd__decap_12
XTAP_3780 VGND VPWR sky130_fd_sc_hd__tapvpwrvgnd_1
XFILLER_17_461 VGND VPWR VPWR VGND sky130_ef_sc_hd__decap_12
XTAP_3791 VGND VPWR sky130_fd_sc_hd__tapvpwrvgnd_1
XFILLER_33_943 VGND VGND VPWR VPWR sky130_fd_sc_hd__fill_1
XFILLER_205_573 VGND VPWR VPWR VGND sky130_ef_sc_hd__decap_12
XFILLER_149_105 VGND VGND VPWR VPWR sky130_fd_sc_hd__decap_6
XFILLER_178_937 VGND VPWR VPWR VGND sky130_ef_sc_hd__decap_12
XFILLER_60_773 VGND VPWR VPWR VGND sky130_ef_sc_hd__decap_12
XFILLER_177_447 VGND VGND VPWR VPWR sky130_fd_sc_hd__fill_1
XFILLER_20_637 VGND VGND VPWR VPWR sky130_fd_sc_hd__decap_6
XFILLER_149_149 VGND VPWR VPWR VGND sky130_ef_sc_hd__decap_12
XFILLER_165_609 VGND VGND VPWR VPWR sky130_fd_sc_hd__decap_6
XFILLER_34_1053 VGND VPWR VPWR VGND sky130_ef_sc_hd__decap_12
XFILLER_121_1001 VGND VGND VPWR VPWR sky130_fd_sc_hd__decap_6
XFILLER_160_1061 VGND VPWR VPWR VGND sky130_ef_sc_hd__decap_12
XFILLER_186_981 VGND VPWR VPWR VGND sky130_ef_sc_hd__decap_12
XFILLER_9_671 VGND VGND VPWR VPWR sky130_fd_sc_hd__fill_1
XFILLER_118_525 VGND VGND VPWR VPWR sky130_fd_sc_hd__decap_6
XFILLER_34_1097 VGND VPWR VPWR VGND sky130_ef_sc_hd__decap_12
XFILLER_69_1105 VGND VGND VPWR VPWR sky130_fd_sc_hd__decap_6
XFILLER_121_1045 VGND VPWR VPWR VGND sky130_ef_sc_hd__decap_12
XFILLER_195_1113 VGND VGND VPWR VPWR sky130_fd_sc_hd__decap_6
XFILLER_157_193 VGND VPWR VPWR VGND sky130_ef_sc_hd__decap_12
XFILLER_146_867 VGND VGND VPWR VPWR sky130_fd_sc_hd__fill_1
XFILLER_118_569 VGND VPWR VPWR VGND sky130_ef_sc_hd__decap_12
XFILLER_173_653 VGND VPWR VPWR VGND sky130_ef_sc_hd__decap_12
XFILLER_172_141 VGND VPWR VPWR VGND sky130_ef_sc_hd__decap_12
XFILLER_69_1149 VGND VPWR VPWR VGND sky130_ef_sc_hd__decap_12
XFILLER_121_1089 VGND VPWR VPWR VGND sky130_ef_sc_hd__decap_12
XFILLER_195_1157 VGND VPWR VPWR VGND sky130_ef_sc_hd__decap_12
XFILLER_133_517 VGND VPWR VPWR VGND sky130_ef_sc_hd__decap_12
XFILLER_173_697 VGND VPWR VPWR VGND sky130_ef_sc_hd__decap_12
XFILLER_87_615 VGND VGND VPWR VPWR sky130_fd_sc_hd__fill_1
XFILLER_141_561 VGND VPWR VPWR VGND sky130_ef_sc_hd__decap_12
XFILLER_102_937 VGND VPWR VPWR VGND sky130_ef_sc_hd__decap_12
XFILLER_99_497 VGND VGND VPWR VPWR sky130_fd_sc_hd__decap_6
XFILLER_101_447 VGND VGND VPWR VPWR sky130_fd_sc_hd__fill_1
XFILLER_41_1013 VGND VPWR VPWR VGND sky130_ef_sc_hd__decap_12
XFILLER_45_1193 VGND VPWR VPWR VGND sky130_ef_sc_hd__decap_12
XFILLER_132_1141 VGND VGND VPWR VPWR sky130_fd_sc_hd__decap_6
XFILLER_68_873 VGND VPWR VPWR VGND sky130_ef_sc_hd__decap_12
XFILLER_110_981 VGND VPWR VPWR VGND sky130_ef_sc_hd__decap_12
XFILLER_41_1057 VGND VPWR VPWR VGND sky130_ef_sc_hd__decap_12
XFILLER_132_1185 VGND VPWR VPWR VGND sky130_ef_sc_hd__decap_12
XFILLER_27_225 VGND VPWR VPWR VGND sky130_ef_sc_hd__decap_12
XFILLER_76_1109 VGND VPWR VPWR VGND sky130_ef_sc_hd__decap_12
XFILLER_103_57 VGND VPWR VPWR VGND sky130_ef_sc_hd__decap_12
XFILLER_83_887 VGND VGND VPWR VPWR sky130_fd_sc_hd__fill_1
XTAP_1107 VGND VPWR sky130_fd_sc_hd__tapvpwrvgnd_1
XTAP_1118 VGND VPWR sky130_fd_sc_hd__tapvpwrvgnd_1
XTAP_1129 VGND VPWR sky130_fd_sc_hd__tapvpwrvgnd_1
XFILLER_196_701 VGND VPWR VPWR VGND sky130_ef_sc_hd__decap_12
XFILLER_11_615 VGND VGND VPWR VPWR sky130_fd_sc_hd__fill_1
XFILLER_23_497 VGND VGND VPWR VPWR sky130_fd_sc_hd__decap_6
XFILLER_168_469 VGND VGND VPWR VPWR sky130_fd_sc_hd__decap_6
XFILLER_52_1153 VGND VPWR VPWR VGND sky130_ef_sc_hd__decap_12
XFILLER_109_503 VGND VGND VPWR VPWR sky130_fd_sc_hd__fill_1
XFILLER_183_417 VGND VPWR VPWR VGND sky130_ef_sc_hd__decap_12
XFILLER_195_27 VGND VPWR VPWR VGND sky130_ef_sc_hd__decap_12
XFILLER_52_1197 VGND VPWR VPWR VGND sky130_ef_sc_hd__decap_12
XFILLER_136_333 VGND VPWR VPWR VGND sky130_ef_sc_hd__decap_12
XFILLER_12_65 VGND VPWR VPWR VGND sky130_ef_sc_hd__decap_12
XFILLER_192_973 VGND VGND VPWR VPWR sky130_fd_sc_hd__decap_6
XFILLER_100_1129 VGND VPWR VPWR VGND sky130_ef_sc_hd__decap_12
XFILLER_137_889 VGND VGND VPWR VPWR sky130_fd_sc_hd__decap_6
XFILLER_191_461 VGND VPWR VPWR VGND sky130_ef_sc_hd__decap_12
XFILLER_128_65 VGND VPWR VPWR VGND sky130_ef_sc_hd__decap_12
XFILLER_136_377 VGND VPWR VPWR VGND sky130_ef_sc_hd__decap_12
XFILLER_152_837 VGND VPWR VPWR VGND sky130_ef_sc_hd__decap_12
XFILLER_105_753 VGND VPWR VPWR VGND sky130_ef_sc_hd__decap_12
XFILLER_2_357 VGND VGND VPWR VPWR sky130_fd_sc_hd__decap_6
XFILLER_120_701 VGND VPWR VPWR VGND sky130_ef_sc_hd__decap_12
XFILLER_137_1063 VGND VGND VPWR VPWR sky130_fd_sc_hd__fill_1
XFILLER_160_881 VGND VPWR VPWR VGND sky130_ef_sc_hd__decap_12
XFILLER_105_797 VGND VPWR VPWR VGND sky130_ef_sc_hd__decap_12
XFILLER_144_53 VGND VPWR VPWR VGND sky130_ef_sc_hd__decap_12
XFILLER_144_97 VGND VPWR VPWR VGND sky130_ef_sc_hd__decap_12
XFILLER_58_350 VGND VGND VPWR VPWR sky130_fd_sc_hd__decap_4
XFILLER_93_629 VGND VPWR VPWR VGND sky130_ef_sc_hd__decap_12
XFILLER_86_681 VGND VPWR VPWR VGND sky130_ef_sc_hd__decap_12
XTAP_3010 VGND VPWR sky130_fd_sc_hd__tapvpwrvgnd_1
XFILLER_92_139 VGND VGND VPWR VPWR sky130_fd_sc_hd__fill_1
XTAP_3021 VGND VPWR sky130_fd_sc_hd__tapvpwrvgnd_1
XTAP_3032 VGND VPWR sky130_fd_sc_hd__tapvpwrvgnd_1
XTAP_3043 VGND VPWR sky130_fd_sc_hd__tapvpwrvgnd_1
XFILLER_160_41 VGND VPWR VPWR VGND sky130_ef_sc_hd__decap_12
XFILLER_73_342 VGND VPWR VPWR VGND sky130_ef_sc_hd__decap_12
XTAP_3054 VGND VPWR sky130_fd_sc_hd__tapvpwrvgnd_1
XFILLER_206_337 VGND VPWR VPWR VGND sky130_ef_sc_hd__decap_12
XTAP_2320 VGND VPWR sky130_fd_sc_hd__tapvpwrvgnd_1
XTAP_3065 VGND VPWR sky130_fd_sc_hd__tapvpwrvgnd_1
XFILLER_34_729 VGND VPWR VPWR VGND sky130_ef_sc_hd__decap_12
XTAP_3076 VGND VPWR sky130_fd_sc_hd__tapvpwrvgnd_1
XTAP_2331 VGND VPWR sky130_fd_sc_hd__tapvpwrvgnd_1
XFILLER_2_1073 VGND VPWR VPWR VGND sky130_ef_sc_hd__decap_12
XTAP_2342 VGND VPWR sky130_fd_sc_hd__tapvpwrvgnd_1
XTAP_3087 VGND VPWR sky130_fd_sc_hd__tapvpwrvgnd_1
XFILLER_160_85 VGND VPWR VPWR VGND sky130_ef_sc_hd__decap_12
XFILLER_15_921 VGND VPWR VPWR VGND sky130_ef_sc_hd__decap_12
XTAP_2353 VGND VPWR sky130_fd_sc_hd__tapvpwrvgnd_1
XTAP_3098 VGND VPWR sky130_fd_sc_hd__tapvpwrvgnd_1
XTAP_2364 VGND VPWR sky130_fd_sc_hd__tapvpwrvgnd_1
XTAP_1630 VGND VPWR sky130_fd_sc_hd__tapvpwrvgnd_1
XTAP_2375 VGND VPWR sky130_fd_sc_hd__tapvpwrvgnd_1
XTAP_1641 VGND VPWR sky130_fd_sc_hd__tapvpwrvgnd_1
XFILLER_96_1091 VGND VGND VPWR VPWR sky130_fd_sc_hd__fill_1
XFILLER_199_561 VGND VPWR VPWR VGND sky130_ef_sc_hd__decap_12
XTAP_2386 VGND VPWR sky130_fd_sc_hd__tapvpwrvgnd_1
XFILLER_109_1121 VGND VPWR VPWR VGND sky130_ef_sc_hd__decap_12
XFILLER_15_965 VGND VPWR VPWR VGND sky130_ef_sc_hd__decap_12
XTAP_1652 VGND VPWR sky130_fd_sc_hd__tapvpwrvgnd_1
XTAP_2397 VGND VPWR sky130_fd_sc_hd__tapvpwrvgnd_1
XTAP_1663 VGND VPWR sky130_fd_sc_hd__tapvpwrvgnd_1
XFILLER_42_773 VGND VPWR VPWR VGND sky130_ef_sc_hd__decap_12
XTAP_1674 VGND VPWR sky130_fd_sc_hd__tapvpwrvgnd_1
XFILLER_18_1037 VGND VPWR VPWR VGND sky130_ef_sc_hd__decap_12
XTAP_1685 VGND VPWR sky130_fd_sc_hd__tapvpwrvgnd_1
XFILLER_14_475 VGND VGND VPWR VPWR sky130_fd_sc_hd__fill_1
XTAP_1696 VGND VPWR sky130_fd_sc_hd__tapvpwrvgnd_1
XFILLER_159_447 VGND VGND VPWR VPWR sky130_fd_sc_hd__fill_1
XFILLER_105_1007 VGND VGND VPWR VPWR sky130_fd_sc_hd__fill_1
XFILLER_186_233 VGND VPWR VPWR VGND sky130_ef_sc_hd__decap_12
XFILLER_147_609 VGND VGND VPWR VPWR sky130_fd_sc_hd__decap_6
XFILLER_202_587 VGND VGND VPWR VPWR sky130_fd_sc_hd__fill_1
XFILLER_186_277 VGND VPWR VPWR VGND sky130_ef_sc_hd__decap_12
XFILLER_168_981 VGND VPWR VPWR VGND sky130_ef_sc_hd__decap_12
XFILLER_179_1119 VGND VGND VPWR VPWR sky130_fd_sc_hd__fill_1
XFILLER_10_681 VGND VPWR VPWR VGND sky130_ef_sc_hd__decap_12
XFILLER_139_193 VGND VPWR VPWR VGND sky130_ef_sc_hd__decap_12
XFILLER_183_951 VGND VGND VPWR VPWR sky130_fd_sc_hd__fill_1
XFILLER_128_867 VGND VGND VPWR VPWR sky130_fd_sc_hd__fill_1
XFILLER_155_653 VGND VPWR VPWR VGND sky130_ef_sc_hd__decap_12
XFILLER_154_141 VGND VPWR VPWR VGND sky130_ef_sc_hd__decap_12
XFILLER_170_601 VGND VPWR VPWR VGND sky130_ef_sc_hd__decap_12
XFILLER_115_517 VGND VPWR VPWR VGND sky130_ef_sc_hd__decap_12
XFILLER_155_697 VGND VPWR VPWR VGND sky130_ef_sc_hd__decap_12
XFILLER_185_93 VGND VPWR VPWR VGND sky130_ef_sc_hd__decap_12
XFILLER_170_645 VGND VPWR VPWR VGND sky130_ef_sc_hd__decap_12
XFILLER_29_1111 VGND VGND VPWR VPWR sky130_fd_sc_hd__fill_1
XFILLER_123_561 VGND VPWR VPWR VGND sky130_ef_sc_hd__decap_12
XFILLER_96_401 VGND VPWR VPWR VGND sky130_ef_sc_hd__decap_12
XFILLER_96_445 VGND VPWR VPWR VGND sky130_ef_sc_hd__decap_12
XFILLER_116_1147 VGND VGND VPWR VPWR sky130_fd_sc_hd__fill_1
XFILLER_110_233 VGND VPWR VPWR VGND sky130_ef_sc_hd__decap_12
XFILLER_96_489 VGND VPWR VPWR VGND sky130_ef_sc_hd__decap_12
XFILLER_110_277 VGND VPWR VPWR VGND sky130_ef_sc_hd__decap_12
XFILLER_65_887 VGND VGND VPWR VPWR sky130_fd_sc_hd__fill_1
XFILLER_25_729 VGND VPWR VPWR VGND sky130_ef_sc_hd__decap_12
XFILLER_91_161 VGND VGND VPWR VPWR sky130_fd_sc_hd__decap_6
XFILLER_18_781 VGND VPWR VPWR VGND sky130_ef_sc_hd__decap_12
XFILLER_206_893 VGND VGND VPWR VPWR sky130_fd_sc_hd__decap_3
XFILLER_178_701 VGND VPWR VPWR VGND sky130_ef_sc_hd__decap_12
XFILLER_20_401 VGND VPWR VPWR VGND sky130_ef_sc_hd__decap_12
XFILLER_20_445 VGND VPWR VPWR VGND sky130_ef_sc_hd__decap_12
XFILLER_165_417 VGND VPWR VPWR VGND sky130_ef_sc_hd__decap_12
XFILLER_20_489 VGND VPWR VPWR VGND sky130_ef_sc_hd__decap_12
XFILLER_203_1175 VGND VGND VPWR VPWR sky130_fd_sc_hd__fill_1
XFILLER_118_333 VGND VPWR VPWR VGND sky130_ef_sc_hd__decap_12
XFILLER_174_973 VGND VGND VPWR VPWR sky130_fd_sc_hd__decap_6
XFILLER_119_889 VGND VGND VPWR VPWR sky130_fd_sc_hd__decap_6
XFILLER_173_461 VGND VPWR VPWR VGND sky130_ef_sc_hd__decap_12
XFILLER_118_377 VGND VPWR VPWR VGND sky130_ef_sc_hd__decap_12
XFILLER_134_837 VGND VPWR VPWR VGND sky130_ef_sc_hd__decap_12
XFILLER_160_133 VGND VGND VPWR VPWR sky130_fd_sc_hd__decap_6
XFILLER_102_701 VGND VPWR VPWR VGND sky130_ef_sc_hd__decap_12
XFILLER_99_261 VGND VPWR VPWR VGND sky130_ef_sc_hd__decap_12
XFILLER_134_1203 VGND VGND VPWR VPWR sky130_fd_sc_hd__fill_1
XFILLER_160_177 VGND VPWR VPWR VGND sky130_ef_sc_hd__decap_12
XFILLER_142_881 VGND VPWR VPWR VGND sky130_ef_sc_hd__decap_12
XFILLER_141_391 VGND VGND VPWR VPWR sky130_fd_sc_hd__fill_1
XFILLER_88_979 VGND VGND VPWR VPWR sky130_fd_sc_hd__fill_1
XFILLER_28_501 VGND VGND VPWR VPWR sky130_fd_sc_hd__decap_3
XFILLER_28_545 VGND VPWR VPWR VGND sky130_ef_sc_hd__decap_12
XFILLER_55_342 VGND VPWR VPWR VGND sky130_ef_sc_hd__decap_12
XFILLER_167_1001 VGND VGND VPWR VPWR sky130_fd_sc_hd__decap_6
XFILLER_71_813 VGND VPWR VPWR VGND sky130_ef_sc_hd__decap_12
XFILLER_28_589 VGND VPWR VPWR VGND sky130_ef_sc_hd__decap_12
XFILLER_15_217 VGND VGND VPWR VPWR sky130_fd_sc_hd__decap_6
XFILLER_70_312 VGND VGND VPWR VPWR sky130_fd_sc_hd__fill_1
XFILLER_167_1045 VGND VPWR VPWR VGND sky130_ef_sc_hd__decap_12
XFILLER_71_857 VGND VPWR VPWR VGND sky130_ef_sc_hd__decap_12
XFILLER_203_329 VGND VGND VPWR VPWR sky130_fd_sc_hd__decap_6
XFILLER_128_1029 VGND VGND VPWR VPWR sky130_fd_sc_hd__decap_6
XFILLER_167_1089 VGND VPWR VPWR VGND sky130_ef_sc_hd__decap_12
XFILLER_90_15 VGND VPWR VPWR VGND sky130_ef_sc_hd__decap_12
XFILLER_130_77 VGND VGND VPWR VPWR sky130_fd_sc_hd__decap_6
XFILLER_196_531 VGND VGND VPWR VPWR sky130_fd_sc_hd__fill_1
XFILLER_23_261 VGND VPWR VPWR VGND sky130_ef_sc_hd__decap_12
XFILLER_168_233 VGND VPWR VPWR VGND sky130_ef_sc_hd__decap_12
XFILLER_129_609 VGND VGND VPWR VPWR sky130_fd_sc_hd__decap_6
XFILLER_8_917 VGND VGND VPWR VPWR sky130_fd_sc_hd__decap_6
XFILLER_12_979 VGND VGND VPWR VPWR sky130_fd_sc_hd__fill_1
XFILLER_135_3 VGND VPWR VPWR VGND sky130_ef_sc_hd__decap_12
XFILLER_168_277 VGND VPWR VPWR VGND sky130_ef_sc_hd__decap_12
XFILLER_7_405 VGND VPWR VPWR VGND sky130_ef_sc_hd__decap_12
XFILLER_184_737 VGND VPWR VPWR VGND sky130_ef_sc_hd__decap_12
XFILLER_183_225 VGND VPWR VPWR VGND sky130_ef_sc_hd__decap_12
XFILLER_7_449 VGND VPWR VPWR VGND sky130_ef_sc_hd__decap_12
XFILLER_165_951 VGND VGND VPWR VPWR sky130_fd_sc_hd__fill_1
XFILLER_137_653 VGND VPWR VPWR VGND sky130_ef_sc_hd__decap_12
XFILLER_136_141 VGND VPWR VPWR VGND sky130_ef_sc_hd__decap_12
XFILLER_104_1073 VGND VPWR VPWR VGND sky130_ef_sc_hd__decap_12
XFILLER_178_1141 VGND VGND VPWR VPWR sky130_fd_sc_hd__decap_6
XFILLER_152_601 VGND VPWR VPWR VGND sky130_ef_sc_hd__decap_12
XFILLER_99_57 VGND VPWR VPWR VGND sky130_ef_sc_hd__decap_12
XFILLER_192_781 VGND VPWR VPWR VGND sky130_ef_sc_hd__decap_12
XFILLER_137_697 VGND VPWR VPWR VGND sky130_ef_sc_hd__decap_12
XFILLER_87_1057 VGND VGND VPWR VPWR sky130_fd_sc_hd__decap_6
XFILLER_151_111 VGND VGND VPWR VPWR sky130_fd_sc_hd__fill_1
XFILLER_174_1005 VGND VPWR VPWR VGND sky130_ef_sc_hd__decap_12
XFILLER_178_1185 VGND VPWR VPWR VGND sky130_ef_sc_hd__decap_12
XFILLER_152_645 VGND VPWR VPWR VGND sky130_ef_sc_hd__decap_12
XFILLER_2_121 VGND VPWR VPWR VGND sky130_ef_sc_hd__decap_12
XFILLER_139_1169 VGND VGND VPWR VPWR sky130_fd_sc_hd__decap_6
XFILLER_174_1049 VGND VPWR VPWR VGND sky130_ef_sc_hd__decap_12
XFILLER_79_913 VGND VPWR VPWR VGND sky130_ef_sc_hd__decap_12
XFILLER_105_561 VGND VPWR VPWR VGND sky130_ef_sc_hd__decap_12
XFILLER_2_165 VGND VPWR VPWR VGND sky130_ef_sc_hd__decap_12
XFILLER_79_957 VGND VPWR VPWR VGND sky130_ef_sc_hd__decap_12
XFILLER_120_531 VGND VGND VPWR VPWR sky130_fd_sc_hd__fill_1
XFILLER_94_905 VGND VPWR VPWR VGND sky130_ef_sc_hd__decap_12
XFILLER_94_949 VGND VPWR VPWR VGND sky130_ef_sc_hd__decap_12
XFILLER_171_51 VGND VGND VPWR VPWR sky130_fd_sc_hd__decap_4
XFILLER_24_1085 VGND VGND VPWR VPWR sky130_fd_sc_hd__decap_6
XFILLER_111_1033 VGND VPWR VPWR VGND sky130_ef_sc_hd__decap_12
XFILLER_185_1101 VGND VPWR VPWR VGND sky130_ef_sc_hd__decap_12
XFILLER_150_1093 VGND VPWR VPWR VGND sky130_ef_sc_hd__decap_12
XFILLER_47_887 VGND VGND VPWR VPWR sky130_fd_sc_hd__fill_1
XFILLER_94_1017 VGND VPWR VPWR VGND sky130_ef_sc_hd__decap_12
XFILLER_111_1077 VGND VPWR VPWR VGND sky130_ef_sc_hd__decap_12
XFILLER_59_1137 VGND VPWR VPWR VGND sky130_ef_sc_hd__decap_12
XFILLER_185_1145 VGND VPWR VPWR VGND sky130_ef_sc_hd__decap_12
XFILLER_61_312 VGND VPWR VPWR VGND sky130_ef_sc_hd__decap_12
XFILLER_98_1197 VGND VGND VPWR VPWR sky130_fd_sc_hd__decap_6
XFILLER_206_167 VGND VGND VPWR VPWR sky130_fd_sc_hd__fill_1
XTAP_2150 VGND VPWR sky130_fd_sc_hd__tapvpwrvgnd_1
XFILLER_146_1129 VGND VPWR VPWR VGND sky130_ef_sc_hd__decap_12
XTAP_2161 VGND VPWR sky130_fd_sc_hd__tapvpwrvgnd_1
XFILLER_181_1009 VGND VPWR VPWR VGND sky130_ef_sc_hd__decap_12
XTAP_2172 VGND VPWR sky130_fd_sc_hd__tapvpwrvgnd_1
XFILLER_185_1189 VGND VPWR VPWR VGND sky130_ef_sc_hd__decap_12
XTAP_2183 VGND VPWR sky130_fd_sc_hd__tapvpwrvgnd_1
XTAP_2194 VGND VPWR sky130_fd_sc_hd__tapvpwrvgnd_1
XFILLER_203_841 VGND VPWR VPWR VGND sky130_ef_sc_hd__decap_12
XTAP_1460 VGND VPWR sky130_fd_sc_hd__tapvpwrvgnd_1
XFILLER_199_391 VGND VGND VPWR VPWR sky130_fd_sc_hd__fill_1
XTAP_1471 VGND VPWR sky130_fd_sc_hd__tapvpwrvgnd_1
XTAP_1482 VGND VPWR sky130_fd_sc_hd__tapvpwrvgnd_1
XTAP_1493 VGND VPWR sky130_fd_sc_hd__tapvpwrvgnd_1
XFILLER_187_553 VGND VGND VPWR VPWR sky130_fd_sc_hd__decap_6
XFILLER_9_55 VGND VGND VPWR VPWR sky130_fd_sc_hd__fill_1
XFILLER_147_417 VGND VPWR VPWR VGND sky130_ef_sc_hd__decap_12
XFILLER_31_1001 VGND VPWR VPWR VGND sky130_ef_sc_hd__decap_12
XFILLER_187_597 VGND VPWR VPWR VGND sky130_ef_sc_hd__decap_12
XFILLER_35_1181 VGND VPWR VPWR VGND sky130_ef_sc_hd__decap_12
XFILLER_70_1083 VGND VGND VPWR VPWR sky130_fd_sc_hd__fill_1
XFILLER_156_973 VGND VGND VPWR VPWR sky130_fd_sc_hd__decap_6
XFILLER_122_1173 VGND VPWR VPWR VGND sky130_ef_sc_hd__decap_12
XFILLER_155_461 VGND VPWR VPWR VGND sky130_ef_sc_hd__decap_12
XFILLER_171_921 VGND VPWR VPWR VGND sky130_ef_sc_hd__decap_12
XFILLER_116_837 VGND VPWR VPWR VGND sky130_ef_sc_hd__decap_12
XFILLER_192_1105 VGND VPWR VPWR VGND sky130_ef_sc_hd__decap_12
XFILLER_142_133 VGND VGND VPWR VPWR sky130_fd_sc_hd__decap_6
XFILLER_171_965 VGND VPWR VPWR VGND sky130_ef_sc_hd__decap_12
XFILLER_192_1149 VGND VPWR VPWR VGND sky130_ef_sc_hd__decap_12
XFILLER_88_209 VGND VPWR VPWR VGND sky130_ef_sc_hd__decap_12
XFILLER_170_475 VGND VGND VPWR VPWR sky130_fd_sc_hd__fill_1
XFILLER_142_177 VGND VPWR VPWR VGND sky130_ef_sc_hd__decap_12
XFILLER_124_881 VGND VPWR VPWR VGND sky130_ef_sc_hd__decap_12
XFILLER_97_721 VGND VGND VPWR VPWR sky130_fd_sc_hd__decap_6
XFILLER_123_391 VGND VGND VPWR VPWR sky130_fd_sc_hd__fill_1
XFILLER_9_1057 VGND VGND VPWR VPWR sky130_fd_sc_hd__decap_6
XFILLER_97_765 VGND VPWR VPWR VGND sky130_ef_sc_hd__decap_12
XFILLER_96_253 VGND VPWR VPWR VGND sky130_ef_sc_hd__decap_12
XFILLER_111_553 VGND VGND VPWR VPWR sky130_fd_sc_hd__decap_6
XFILLER_42_1141 VGND VPWR VPWR VGND sky130_ef_sc_hd__decap_12
XFILLER_85_949 VGND VGND VPWR VPWR sky130_fd_sc_hd__decap_3
XFILLER_111_597 VGND VPWR VPWR VGND sky130_ef_sc_hd__decap_12
XFILLER_37_342 VGND VPWR VPWR VGND sky130_ef_sc_hd__decap_12
XFILLER_53_813 VGND VPWR VPWR VGND sky130_ef_sc_hd__decap_12
XFILLER_52_312 VGND VGND VPWR VPWR sky130_fd_sc_hd__fill_1
XFILLER_53_857 VGND VPWR VPWR VGND sky130_ef_sc_hd__decap_12
XFILLER_25_559 VGND VGND VPWR VPWR sky130_fd_sc_hd__fill_1
XFILLER_197_317 VGND VPWR VPWR VGND sky130_ef_sc_hd__decap_12
XFILLER_12_209 VGND VPWR VPWR VGND sky130_ef_sc_hd__decap_12
XFILLER_178_531 VGND VGND VPWR VPWR sky130_fd_sc_hd__fill_1
XFILLER_21_721 VGND VGND VPWR VPWR sky130_fd_sc_hd__decap_6
XFILLER_21_765 VGND VPWR VPWR VGND sky130_ef_sc_hd__decap_12
XFILLER_166_737 VGND VPWR VPWR VGND sky130_ef_sc_hd__decap_12
XFILLER_20_253 VGND VPWR VPWR VGND sky130_ef_sc_hd__decap_12
XFILLER_165_225 VGND VPWR VPWR VGND sky130_ef_sc_hd__decap_12
XFILLER_176_29 VGND VPWR VPWR VGND sky130_ef_sc_hd__decap_12
XFILLER_147_951 VGND VGND VPWR VPWR sky130_fd_sc_hd__fill_1
XFILLER_5_909 VGND VPWR VPWR VGND sky130_ef_sc_hd__decap_12
XFILLER_119_653 VGND VPWR VPWR VGND sky130_ef_sc_hd__decap_12
XFILLER_101_1213 VGND VGND VPWR VPWR sky130_fd_sc_hd__decap_4
XFILLER_118_141 VGND VPWR VPWR VGND sky130_ef_sc_hd__decap_12
XFILLER_181_729 VGND VPWR VPWR VGND sky130_ef_sc_hd__decap_12
XFILLER_134_601 VGND VPWR VPWR VGND sky130_ef_sc_hd__decap_12
XFILLER_4_419 VGND VGND VPWR VPWR sky130_fd_sc_hd__fill_1
XFILLER_10_1129 VGND VPWR VPWR VGND sky130_ef_sc_hd__decap_12
XFILLER_119_697 VGND VPWR VPWR VGND sky130_ef_sc_hd__decap_12
XFILLER_174_781 VGND VPWR VPWR VGND sky130_ef_sc_hd__decap_12
XFILLER_133_111 VGND VGND VPWR VPWR sky130_fd_sc_hd__fill_1
XFILLER_134_645 VGND VPWR VPWR VGND sky130_ef_sc_hd__decap_12
XFILLER_121_317 VGND VPWR VPWR VGND sky130_ef_sc_hd__decap_12
XFILLER_0_614 VGND VGND VPWR VPWR sky130_fd_sc_hd__fill_2
XFILLER_161_497 VGND VGND VPWR VPWR sky130_fd_sc_hd__decap_6
XFILLER_102_531 VGND VGND VPWR VPWR sky130_fd_sc_hd__fill_1
XFILLER_125_55 VGND VGND VPWR VPWR sky130_fd_sc_hd__fill_1
XFILLER_18_53 VGND VPWR VPWR VGND sky130_ef_sc_hd__decap_12
XFILLER_29_887 VGND VGND VPWR VPWR sky130_fd_sc_hd__fill_1
XFILLER_84_971 VGND VGND VPWR VPWR sky130_fd_sc_hd__fill_1
XFILLER_43_312 VGND VPWR VPWR VGND sky130_ef_sc_hd__decap_12
XFILLER_18_97 VGND VPWR VPWR VGND sky130_ef_sc_hd__decap_12
XFILLER_203_137 VGND VPWR VPWR VGND sky130_ef_sc_hd__decap_12
XPHY_510 VGND VGND VPWR VPWR sky130_fd_sc_hd__decap_3
XFILLER_19_1121 VGND VPWR VPWR VGND sky130_ef_sc_hd__decap_12
XPHY_521 VGND VGND VPWR VPWR sky130_fd_sc_hd__decap_3
XFILLER_24_581 VGND VGND VPWR VPWR sky130_fd_sc_hd__decap_6
XFILLER_200_811 VGND VGND VPWR VPWR sky130_fd_sc_hd__fill_1
XFILLER_169_553 VGND VGND VPWR VPWR sky130_fd_sc_hd__decap_6
XFILLER_15_1007 VGND VGND VPWR VPWR sky130_fd_sc_hd__fill_1
XFILLER_184_501 VGND VPWR VPWR VGND sky130_ef_sc_hd__decap_12
XFILLER_197_895 VGND VGND VPWR VPWR sky130_fd_sc_hd__fill_1
XFILLER_129_417 VGND VPWR VPWR VGND sky130_ef_sc_hd__decap_12
XFILLER_8_725 VGND VPWR VPWR VGND sky130_ef_sc_hd__decap_12
XFILLER_169_597 VGND VPWR VPWR VGND sky130_ef_sc_hd__decap_12
XFILLER_184_545 VGND VPWR VPWR VGND sky130_ef_sc_hd__decap_12
XFILLER_89_1119 VGND VGND VPWR VPWR sky130_fd_sc_hd__fill_1
XFILLER_8_769 VGND VPWR VPWR VGND sky130_ef_sc_hd__decap_12
XFILLER_138_973 VGND VGND VPWR VPWR sky130_fd_sc_hd__decap_6
XFILLER_184_589 VGND VPWR VPWR VGND sky130_ef_sc_hd__decap_12
XFILLER_137_461 VGND VPWR VPWR VGND sky130_ef_sc_hd__decap_12
XFILLER_171_217 VGND VGND VPWR VPWR sky130_fd_sc_hd__decap_6