* NGSPICE file created from manual_macro_placement_test.ext - technology: sky130A

* Black-box entry subcircuit for sky130_ef_sc_hd__decap_12 abstract view
.subckt sky130_ef_sc_hd__decap_12 VGND VPWR VPB VNB
.ends

* Black-box entry subcircuit for sky130_fd_sc_hd__decap_6 abstract view
.subckt sky130_fd_sc_hd__decap_6 VGND VNB VPB VPWR
.ends

* Black-box entry subcircuit for sky130_fd_sc_hd__fill_1 abstract view
.subckt sky130_fd_sc_hd__fill_1 VGND VNB VPB VPWR
.ends

* Black-box entry subcircuit for sky130_fd_sc_hd__decap_3 abstract view
.subckt sky130_fd_sc_hd__decap_3 VGND VNB VPB VPWR
.ends

* Black-box entry subcircuit for sky130_fd_sc_hd__decap_4 abstract view
.subckt sky130_fd_sc_hd__decap_4 VGND VNB VPB VPWR
.ends

* Black-box entry subcircuit for sky130_fd_sc_hd__decap_8 abstract view
.subckt sky130_fd_sc_hd__decap_8 VGND VNB VPB VPWR
.ends

* Black-box entry subcircuit for sky130_fd_sc_hd__fill_2 abstract view
.subckt sky130_fd_sc_hd__fill_2 VGND VNB VPB VPWR
.ends

* Black-box entry subcircuit for sky130_fd_sc_hd__tapvpwrvgnd_1 abstract view
.subckt sky130_fd_sc_hd__tapvpwrvgnd_1 VGND VPWR
.ends

* Black-box entry subcircuit for sky130_fd_sc_hd__dlymetal6s2s_1 abstract view
.subckt sky130_fd_sc_hd__dlymetal6s2s_1 A VGND VNB VPB VPWR X
.ends

* Black-box entry subcircuit for sky130_fd_sc_hd__clkbuf_1 abstract view
.subckt sky130_fd_sc_hd__clkbuf_1 A VGND VNB VPB VPWR X
.ends

* Black-box entry subcircuit for sky130_fd_sc_hd__clkbuf_2 abstract view
.subckt sky130_fd_sc_hd__clkbuf_2 A VGND VNB VPB VPWR X
.ends

* Black-box entry subcircuit for sky130_fd_sc_hd__buf_2 abstract view
.subckt sky130_fd_sc_hd__buf_2 A VGND VNB VPB VPWR X
.ends

* Black-box entry subcircuit for spm abstract view
.subckt spm clk p rst x[0] x[10] x[11] x[12] x[13] x[14] x[15] x[16] x[17] x[18] x[19]
+ x[1] x[20] x[21] x[22] x[23] x[24] x[25] x[26] x[27] x[28] x[29] x[2] x[30] x[31]
+ x[3] x[4] x[5] x[6] x[7] x[8] x[9] y VPWR VGND
.ends

* Black-box entry subcircuit for sky130_fd_sc_hd__clkbuf_4 abstract view
.subckt sky130_fd_sc_hd__clkbuf_4 A VGND VNB VPB VPWR X
.ends

.subckt manual_macro_placement_test VGND VPWR clk1 clk2 p1 p2 rst1 rst2 x1[0] x1[10]
+ x1[11] x1[12] x1[13] x1[14] x1[15] x1[16] x1[17] x1[18] x1[19] x1[1] x1[20] x1[21]
+ x1[22] x1[23] x1[24] x1[25] x1[26] x1[27] x1[28] x1[29] x1[2] x1[30] x1[31] x1[3]
+ x1[4] x1[5] x1[6] x1[7] x1[8] x1[9] x2[0] x2[10] x2[11] x2[12] x2[13] x2[14] x2[15]
+ x2[16] x2[17] x2[18] x2[19] x2[1] x2[20] x2[21] x2[22] x2[23] x2[24] x2[25] x2[26]
+ x2[27] x2[28] x2[29] x2[2] x2[30] x2[31] x2[3] x2[4] x2[5] x2[6] x2[7] x2[8] x2[9]
+ y1 y2
XFILLER_39_288 VGND VPWR VPWR VGND sky130_ef_sc_hd__decap_12
XFILLER_27_417 VGND VPWR VPWR VGND sky130_ef_sc_hd__decap_12
XFILLER_22_133 VGND VGND VPWR VPWR sky130_fd_sc_hd__decap_6
XFILLER_22_177 VGND VPWR VPWR VGND sky130_ef_sc_hd__decap_12
XFILLER_89_111 VGND VGND VPWR VPWR sky130_fd_sc_hd__fill_1
XFILLER_104_477 VGND VPWR VPWR VGND sky130_ef_sc_hd__decap_12
XFILLER_104_433 VGND VPWR VPWR VGND sky130_ef_sc_hd__decap_12
XFILLER_92_309 VGND VPWR VPWR VGND sky130_ef_sc_hd__decap_12
XFILLER_85_361 VGND VGND VPWR VPWR sky130_fd_sc_hd__decap_3
XFILLER_93_69 VGND VPWR VPWR VGND sky130_ef_sc_hd__decap_12
XFILLER_14_645 VGND VGND VPWR VPWR sky130_fd_sc_hd__decap_6
XFILLER_14_601 VGND VPWR VPWR VGND sky130_ef_sc_hd__decap_12
XFILLER_13_111 VGND VGND VPWR VPWR sky130_fd_sc_hd__fill_1
XFILLER_26_41 VGND VPWR VPWR VGND sky130_ef_sc_hd__decap_12
XFILLER_26_85 VGND VPWR VPWR VGND sky130_ef_sc_hd__decap_12
XFILLER_9_137 VGND VPWR VPWR VGND sky130_ef_sc_hd__decap_12
XFILLER_107_293 VGND VPWR VPWR VGND sky130_ef_sc_hd__decap_12
XFILLER_96_637 VGND VGND VPWR VPWR sky130_fd_sc_hd__decap_6
XFILLER_76_350 VGND VGND VPWR VPWR sky130_fd_sc_hd__decap_4
XFILLER_95_169 VGND VPWR VPWR VGND sky130_ef_sc_hd__decap_12
XFILLER_95_125 VGND VPWR VPWR VGND sky130_ef_sc_hd__decap_12
XFILLER_20_637 VGND VGND VPWR VPWR sky130_fd_sc_hd__decap_6
XFILLER_17_461 VGND VPWR VPWR VGND sky130_ef_sc_hd__decap_12
XFILLER_99_497 VGND VGND VPWR VPWR sky130_fd_sc_hd__decap_6
XFILLER_101_447 VGND VGND VPWR VPWR sky130_fd_sc_hd__fill_1
XFILLER_87_615 VGND VGND VPWR VPWR sky130_fd_sc_hd__fill_1
XFILLER_103_57 VGND VPWR VPWR VGND sky130_ef_sc_hd__decap_12
XFILLER_27_225 VGND VPWR VPWR VGND sky130_ef_sc_hd__decap_12
XFILLER_109_503 VGND VGND VPWR VPWR sky130_fd_sc_hd__fill_1
XFILLER_11_615 VGND VGND VPWR VPWR sky130_fd_sc_hd__fill_1
XFILLER_23_497 VGND VGND VPWR VPWR sky130_fd_sc_hd__decap_6
XFILLER_12_65 VGND VPWR VPWR VGND sky130_ef_sc_hd__decap_12
XFILLER_2_357 VGND VGND VPWR VPWR sky130_fd_sc_hd__decap_6
XFILLER_93_629 VGND VPWR VPWR VGND sky130_ef_sc_hd__decap_12
XFILLER_73_342 VGND VPWR VPWR VGND sky130_ef_sc_hd__decap_12
XFILLER_58_350 VGND VGND VPWR VPWR sky130_fd_sc_hd__decap_4
XFILLER_92_139 VGND VGND VPWR VPWR sky130_fd_sc_hd__fill_1
XFILLER_14_475 VGND VGND VPWR VPWR sky130_fd_sc_hd__fill_1
XFILLER_96_489 VGND VPWR VPWR VGND sky130_ef_sc_hd__decap_12
XFILLER_96_445 VGND VPWR VPWR VGND sky130_ef_sc_hd__decap_12
XFILLER_96_401 VGND VPWR VPWR VGND sky130_ef_sc_hd__decap_12
XFILLER_91_161 VGND VGND VPWR VPWR sky130_fd_sc_hd__decap_6
XFILLER_20_489 VGND VPWR VPWR VGND sky130_ef_sc_hd__decap_12
XFILLER_20_445 VGND VPWR VPWR VGND sky130_ef_sc_hd__decap_12
XFILLER_20_401 VGND VPWR VPWR VGND sky130_ef_sc_hd__decap_12
XFILLER_99_261 VGND VPWR VPWR VGND sky130_ef_sc_hd__decap_12
XFILLER_55_342 VGND VPWR VPWR VGND sky130_ef_sc_hd__decap_12
XFILLER_28_545 VGND VPWR VPWR VGND sky130_ef_sc_hd__decap_12
XFILLER_28_501 VGND VGND VPWR VPWR sky130_fd_sc_hd__decap_3
XFILLER_70_312 VGND VGND VPWR VPWR sky130_fd_sc_hd__fill_1
XFILLER_90_15 VGND VPWR VPWR VGND sky130_ef_sc_hd__decap_12
XFILLER_28_589 VGND VPWR VPWR VGND sky130_ef_sc_hd__decap_12
XFILLER_15_217 VGND VGND VPWR VPWR sky130_fd_sc_hd__decap_6
XFILLER_23_261 VGND VPWR VPWR VGND sky130_ef_sc_hd__decap_12
XFILLER_109_300 VGND VGND VPWR VPWR sky130_fd_sc_hd__decap_8
XFILLER_99_57 VGND VPWR VPWR VGND sky130_ef_sc_hd__decap_12
XFILLER_7_405 VGND VPWR VPWR VGND sky130_ef_sc_hd__decap_12
XFILLER_7_449 VGND VPWR VPWR VGND sky130_ef_sc_hd__decap_12
XFILLER_105_561 VGND VPWR VPWR VGND sky130_ef_sc_hd__decap_12
XFILLER_2_165 VGND VPWR VPWR VGND sky130_ef_sc_hd__decap_12
XFILLER_2_121 VGND VPWR VPWR VGND sky130_ef_sc_hd__decap_12
XFILLER_61_312 VGND VPWR VPWR VGND sky130_ef_sc_hd__decap_12
XFILLER_0_35 VGND VPWR VPWR VGND sky130_ef_sc_hd__decap_12
XFILLER_0_57 VGND VGND VPWR VPWR sky130_fd_sc_hd__fill_2
XFILLER_9_55 VGND VGND VPWR VPWR sky130_fd_sc_hd__fill_1
XFILLER_88_209 VGND VPWR VPWR VGND sky130_ef_sc_hd__decap_12
XFILLER_96_253 VGND VPWR VPWR VGND sky130_ef_sc_hd__decap_12
XFILLER_37_342 VGND VPWR VPWR VGND sky130_ef_sc_hd__decap_12
XFILLER_52_312 VGND VGND VPWR VPWR sky130_fd_sc_hd__fill_1
XFILLER_25_559 VGND VGND VPWR VPWR sky130_fd_sc_hd__fill_1
XFILLER_12_209 VGND VPWR VPWR VGND sky130_ef_sc_hd__decap_12
XFILLER_109_12 VGND VPWR VPWR VGND sky130_ef_sc_hd__decap_12
XFILLER_20_253 VGND VPWR VPWR VGND sky130_ef_sc_hd__decap_12
XFILLER_4_419 VGND VGND VPWR VPWR sky130_fd_sc_hd__fill_1
XFILLER_102_531 VGND VGND VPWR VPWR sky130_fd_sc_hd__fill_1
XFILLER_43_312 VGND VPWR VPWR VGND sky130_ef_sc_hd__decap_12
XFILLER_18_53 VGND VPWR VPWR VGND sky130_ef_sc_hd__decap_12
XFILLER_18_97 VGND VPWR VPWR VGND sky130_ef_sc_hd__decap_12
XFILLER_24_581 VGND VGND VPWR VPWR sky130_fd_sc_hd__decap_6
XFILLER_109_141 VGND VGND VPWR VPWR sky130_fd_sc_hd__fill_2
XTAP_507 VGND VPWR sky130_fd_sc_hd__tapvpwrvgnd_1
XFILLER_3_441 VGND VGND VPWR VPWR sky130_fd_sc_hd__decap_6
XFILLER_7_279 VGND VGND VPWR VPWR sky130_fd_sc_hd__fill_1
XFILLER_105_391 VGND VGND VPWR VPWR sky130_fd_sc_hd__fill_1
XFILLER_93_223 VGND VGND VPWR VPWR sky130_fd_sc_hd__fill_1
XTAP_518 VGND VPWR sky130_fd_sc_hd__tapvpwrvgnd_1
XTAP_529 VGND VPWR sky130_fd_sc_hd__tapvpwrvgnd_1
XFILLER_22_7 VGND VPWR VPWR VGND sky130_ef_sc_hd__decap_12
XFILLER_3_485 VGND VPWR VPWR VGND sky130_ef_sc_hd__decap_12
XFILLER_98_3 VGND VPWR VPWR VGND sky130_ef_sc_hd__decap_12
XFILLER_34_312 VGND VGND VPWR VPWR sky130_fd_sc_hd__fill_1
XFILLER_103_317 VGND VPWR VPWR VGND sky130_ef_sc_hd__decap_12
XFILLER_89_529 VGND VPWR VPWR VGND sky130_ef_sc_hd__decap_12
XFILLER_97_573 VGND VPWR VPWR VGND sky130_ef_sc_hd__decap_12
XFILLER_21_573 VGND VPWR VPWR VGND sky130_ef_sc_hd__decap_12
XFILLER_13_529 VGND VPWR VPWR VGND sky130_ef_sc_hd__decap_12
XFILLER_40_326 VGND VPWR VPWR VGND sky130_ef_sc_hd__decap_12
XFILLER_106_133 VGND VGND VPWR VPWR sky130_fd_sc_hd__decap_6
XFILLER_20_65 VGND VPWR VPWR VGND sky130_ef_sc_hd__decap_12
XFILLER_106_177 VGND VPWR VPWR VGND sky130_ef_sc_hd__decap_12
XFILLER_0_411 VGND VGND VPWR VPWR sky130_fd_sc_hd__decap_8
XFILLER_0_433 VGND VGND VPWR VPWR sky130_fd_sc_hd__decap_4
XFILLER_0_477 VGND VPWR VPWR VGND sky130_ef_sc_hd__decap_12
XFILLER_16_389 VGND VPWR VPWR VGND sky130_ef_sc_hd__decap_12
XFILLER_16_345 VGND VPWR VPWR VGND sky130_ef_sc_hd__decap_12
XFILLER_16_301 VGND VGND VPWR VPWR sky130_fd_sc_hd__decap_6
XFILLER_8_533 VGND VPWR VPWR VGND sky130_ef_sc_hd__decap_12
XTAP_348 VGND VPWR sky130_fd_sc_hd__tapvpwrvgnd_1
XTAP_337 VGND VPWR sky130_fd_sc_hd__tapvpwrvgnd_1
XTAP_326 VGND VPWR sky130_fd_sc_hd__tapvpwrvgnd_1
XTAP_304 VGND VPWR sky130_fd_sc_hd__tapvpwrvgnd_1
XTAP_315 VGND VPWR sky130_fd_sc_hd__tapvpwrvgnd_1
XFILLER_3_293 VGND VPWR VPWR VGND sky130_ef_sc_hd__decap_12
XFILLER_100_309 VGND VPWR VPWR VGND sky130_ef_sc_hd__decap_12
XFILLER_94_587 VGND VGND VPWR VPWR sky130_fd_sc_hd__fill_1
XTAP_359 VGND VPWR sky130_fd_sc_hd__tapvpwrvgnd_1
XFILLER_13_3 VGND VPWR VPWR VGND sky130_ef_sc_hd__decap_12
XFILLER_19_161 VGND VGND VPWR VPWR sky130_fd_sc_hd__decap_6
XFILLER_26_109 VGND VPWR VPWR VGND sky130_ef_sc_hd__decap_12
XFILLER_104_637 VGND VGND VPWR VPWR sky130_fd_sc_hd__decap_6
XTAP_860 VGND VPWR sky130_fd_sc_hd__tapvpwrvgnd_1
XTAP_871 VGND VPWR sky130_fd_sc_hd__tapvpwrvgnd_1
XTAP_893 VGND VPWR sky130_fd_sc_hd__tapvpwrvgnd_1
XTAP_882 VGND VPWR sky130_fd_sc_hd__tapvpwrvgnd_1
XFILLER_103_169 VGND VPWR VPWR VGND sky130_ef_sc_hd__decap_12
XFILLER_103_125 VGND VPWR VPWR VGND sky130_ef_sc_hd__decap_12
XFILLER_89_337 VGND VPWR VPWR VGND sky130_ef_sc_hd__decap_12
XFILLER_26_643 VGND VGND VPWR VPWR sky130_fd_sc_hd__fill_1
XFILLER_15_43 VGND VPWR VPWR VGND sky130_ef_sc_hd__decap_12
XFILLER_5_503 VGND VGND VPWR VPWR sky130_fd_sc_hd__fill_1
XFILLER_13_337 VGND VPWR VPWR VGND sky130_ef_sc_hd__decap_12
XFILLER_107_497 VGND VGND VPWR VPWR sky130_fd_sc_hd__decap_6
XFILLER_95_329 VGND VGND VPWR VPWR sky130_fd_sc_hd__decap_6
XPHY_170 VGND VGND VPWR VPWR sky130_fd_sc_hd__decap_3
XFILLER_16_153 VGND VPWR VPWR VGND sky130_ef_sc_hd__decap_12
XFILLER_16_197 VGND VPWR VPWR VGND sky130_ef_sc_hd__decap_12
XPHY_181 VGND VGND VPWR VPWR sky130_fd_sc_hd__decap_3
XPHY_192 VGND VGND VPWR VPWR sky130_fd_sc_hd__decap_3
XFILLER_8_363 VGND VGND VPWR VPWR sky130_fd_sc_hd__fill_1
XFILLER_101_629 VGND VPWR VPWR VGND sky130_ef_sc_hd__decap_12
XFILLER_100_139 VGND VGND VPWR VPWR sky130_fd_sc_hd__fill_1
XFILLER_98_189 VGND VGND VPWR VPWR sky130_fd_sc_hd__decap_6
XFILLER_86_307 VGND VGND VPWR VPWR sky130_fd_sc_hd__fill_1
XFILLER_27_429 VGND VPWR VPWR VGND sky130_ef_sc_hd__decap_12
XFILLER_22_189 VGND VGND VPWR VPWR sky130_fd_sc_hd__decap_6
XFILLER_10_307 VGND VGND VPWR VPWR sky130_fd_sc_hd__fill_1
XFILLER_104_445 VGND VPWR VPWR VGND sky130_ef_sc_hd__decap_12
XFILLER_104_401 VGND VPWR VPWR VGND sky130_ef_sc_hd__decap_12
XFILLER_104_489 VGND VPWR VPWR VGND sky130_ef_sc_hd__decap_12
XFILLER_93_15 VGND VPWR VPWR VGND sky130_ef_sc_hd__decap_12
XFILLER_89_167 VGND VGND VPWR VPWR sky130_fd_sc_hd__fill_1
XTAP_690 VGND VPWR sky130_fd_sc_hd__tapvpwrvgnd_1
XFILLER_14_613 VGND VPWR VPWR VGND sky130_ef_sc_hd__decap_12
XFILLER_9_105 VGND VGND VPWR VPWR sky130_fd_sc_hd__decap_6
XFILLER_13_167 VGND VGND VPWR VPWR sky130_fd_sc_hd__fill_1
XFILLER_26_53 VGND VPWR VPWR VGND sky130_ef_sc_hd__decap_12
XFILLER_26_97 VGND VPWR VPWR VGND sky130_ef_sc_hd__decap_12
XFILLER_9_149 VGND VPWR VPWR VGND sky130_ef_sc_hd__decap_12
XFILLER_107_261 VGND VPWR VPWR VGND sky130_ef_sc_hd__decap_12
XFILLER_95_137 VGND VPWR VPWR VGND sky130_ef_sc_hd__decap_12
XFILLER_1_561 VGND VPWR VPWR VGND sky130_ef_sc_hd__decap_12
XFILLER_3_57 VGND VPWR VPWR VGND sky130_ef_sc_hd__decap_12
XFILLER_17_473 VGND VPWR VPWR VGND sky130_ef_sc_hd__decap_12
XFILLER_67_340 VGND VGND VPWR VPWR sky130_fd_sc_hd__fill_1
XFILLER_103_69 VGND VPWR VPWR VGND sky130_ef_sc_hd__decap_12
XFILLER_27_237 VGND VPWR VPWR VGND sky130_ef_sc_hd__decap_12
XFILLER_109_559 VGND VGND VPWR VPWR sky130_fd_sc_hd__fill_1
XFILLER_11_649 VGND VGND VPWR VPWR sky130_fd_sc_hd__fill_2
XFILLER_7_609 VGND VGND VPWR VPWR sky130_fd_sc_hd__decap_6
XFILLER_12_77 VGND VGND VPWR VPWR sky130_fd_sc_hd__decap_6
XFILLER_104_253 VGND VPWR VPWR VGND sky130_ef_sc_hd__decap_12
XFILLER_88_15 VGND VPWR VPWR VGND sky130_ef_sc_hd__decap_12
XFILLER_85_181 VGND VPWR VPWR VGND sky130_ef_sc_hd__decap_12
XFILLER_14_421 VGND VPWR VPWR VGND sky130_ef_sc_hd__decap_12
XFILLER_108_581 VGND VGND VPWR VPWR sky130_fd_sc_hd__decap_6
XFILLER_96_457 VGND VPWR VPWR VGND sky130_ef_sc_hd__decap_12
XFILLER_96_413 VGND VGND VPWR VPWR sky130_fd_sc_hd__decap_6
XFILLER_49_340 VGND VGND VPWR VPWR sky130_fd_sc_hd__fill_1
XFILLER_1_391 VGND VGND VPWR VPWR sky130_fd_sc_hd__fill_1
XFILLER_17_281 VGND VPWR VPWR VGND sky130_ef_sc_hd__decap_12
XFILLER_20_457 VGND VPWR VPWR VGND sky130_ef_sc_hd__decap_12
XFILLER_20_413 VGND VGND VPWR VPWR sky130_fd_sc_hd__decap_6
XFILLER_99_273 VGND VGND VPWR VPWR sky130_fd_sc_hd__decap_6
XFILLER_101_223 VGND VGND VPWR VPWR sky130_fd_sc_hd__fill_1
XFILLER_28_557 VGND VGND VPWR VPWR sky130_fd_sc_hd__decap_3
XFILLER_90_27 VGND VGND VPWR VPWR sky130_fd_sc_hd__fill_1
XFILLER_23_273 VGND VGND VPWR VPWR sky130_fd_sc_hd__decap_6
XFILLER_99_69 VGND VPWR VPWR VGND sky130_ef_sc_hd__decap_12
XFILLER_7_417 VGND VPWR VPWR VGND sky130_ef_sc_hd__decap_12
XFILLER_105_573 VGND VPWR VPWR VGND sky130_ef_sc_hd__decap_12
XFILLER_93_405 VGND VPWR VPWR VGND sky130_ef_sc_hd__decap_12
XFILLER_2_177 VGND VPWR VPWR VGND sky130_ef_sc_hd__decap_12
XFILLER_2_133 VGND VGND VPWR VPWR sky130_fd_sc_hd__decap_6
XFILLER_93_449 VGND VPWR VPWR VGND sky130_ef_sc_hd__decap_12
XFILLER_61_324 VGND VPWR VPWR VGND sky130_ef_sc_hd__decap_12
XFILLER_0_47 VGND VGND VPWR VPWR sky130_fd_sc_hd__decap_8
XFILLER_14_251 VGND VGND VPWR VPWR sky130_fd_sc_hd__fill_1
XFILLER_96_221 VGND VPWR VPWR VGND sky130_ef_sc_hd__decap_12
XFILLER_96_265 VGND VPWR VPWR VGND sky130_ef_sc_hd__decap_12
XFILLER_25_505 VGND VPWR VPWR VGND sky130_ef_sc_hd__decap_12
XFILLER_100_15 VGND VPWR VPWR VGND sky130_ef_sc_hd__decap_12
XFILLER_20_221 VGND VPWR VPWR VGND sky130_ef_sc_hd__decap_12
XFILLER_109_57 VGND VGND VPWR VPWR sky130_fd_sc_hd__decap_8
XFILLER_109_35 VGND VPWR VPWR VGND sky130_ef_sc_hd__decap_12
XFILLER_109_24 VGND VGND VPWR VPWR sky130_fd_sc_hd__decap_4
XFILLER_20_265 VGND VPWR VPWR VGND sky130_ef_sc_hd__decap_12
XFILLER_102_587 VGND VGND VPWR VPWR sky130_fd_sc_hd__fill_1
XFILLER_90_419 VGND VGND VPWR VPWR sky130_fd_sc_hd__fill_1
XFILLER_43_324 VGND VPWR VPWR VGND sky130_ef_sc_hd__decap_12
XFILLER_28_365 VGND VPWR VPWR VGND sky130_ef_sc_hd__decap_12
XFILLER_28_321 VGND VPWR VPWR VGND sky130_ef_sc_hd__decap_12
XFILLER_18_65 VGND VPWR VPWR VGND sky130_ef_sc_hd__decap_12
XFILLER_7_225 VGND VPWR VPWR VGND sky130_ef_sc_hd__decap_12
XFILLER_109_197 VGND VPWR VPWR VGND sky130_ef_sc_hd__decap_12
XTAP_508 VGND VPWR sky130_fd_sc_hd__tapvpwrvgnd_1
XTAP_519 VGND VPWR sky130_fd_sc_hd__tapvpwrvgnd_1
XFILLER_3_497 VGND VGND VPWR VPWR sky130_fd_sc_hd__decap_6
XFILLER_93_279 VGND VGND VPWR VPWR sky130_fd_sc_hd__fill_1
XFILLER_15_7 VGND VPWR VPWR VGND sky130_ef_sc_hd__decap_12
XFILLER_91_81 VGND VPWR VPWR VGND sky130_ef_sc_hd__decap_12
XFILLER_97_585 VGND VPWR VPWR VGND sky130_ef_sc_hd__decap_12
XFILLER_97_541 VGND VPWR VPWR VGND sky130_ef_sc_hd__decap_12
XFILLER_103_329 VGND VGND VPWR VPWR sky130_fd_sc_hd__decap_6
XFILLER_25_335 VGND VGND VPWR VPWR sky130_fd_sc_hd__fill_1
XFILLER_21_585 VGND VPWR VPWR VGND sky130_ef_sc_hd__decap_12
XFILLER_21_541 VGND VPWR VPWR VGND sky130_ef_sc_hd__decap_12
XFILLER_40_338 VGND VPWR VPWR VGND sky130_ef_sc_hd__decap_12
XFILLER_106_189 VGND VGND VPWR VPWR sky130_fd_sc_hd__decap_6
XFILLER_96_15 VGND VPWR VPWR VGND sky130_ef_sc_hd__decap_12
XFILLER_20_77 VGND VGND VPWR VPWR sky130_fd_sc_hd__decap_6
XFILLER_0_489 VGND VPWR VPWR VGND sky130_ef_sc_hd__decap_12
XFILLER_16_357 VGND VGND VPWR VPWR sky130_fd_sc_hd__decap_6
XFILLER_8_589 VGND VPWR VPWR VGND sky130_ef_sc_hd__decap_12
XFILLER_8_545 VGND VPWR VPWR VGND sky130_ef_sc_hd__decap_12
XFILLER_8_501 VGND VPWR VPWR VGND sky130_ef_sc_hd__decap_12
XTAP_349 VGND VPWR sky130_fd_sc_hd__tapvpwrvgnd_1
XTAP_338 VGND VPWR sky130_fd_sc_hd__tapvpwrvgnd_1
XTAP_327 VGND VPWR sky130_fd_sc_hd__tapvpwrvgnd_1
XFILLER_3_261 VGND VPWR VPWR VGND sky130_ef_sc_hd__decap_12
XTAP_316 VGND VPWR sky130_fd_sc_hd__tapvpwrvgnd_1
XTAP_305 VGND VPWR sky130_fd_sc_hd__tapvpwrvgnd_1
XFILLER_94_533 VGND VPWR VPWR VGND sky130_ef_sc_hd__decap_12
XFILLER_89_305 VGND VPWR VPWR VGND sky130_ef_sc_hd__decap_12
XTAP_894 VGND VPWR sky130_fd_sc_hd__tapvpwrvgnd_1
XTAP_861 VGND VPWR sky130_fd_sc_hd__tapvpwrvgnd_1
XTAP_872 VGND VPWR sky130_fd_sc_hd__tapvpwrvgnd_1
XTAP_883 VGND VPWR sky130_fd_sc_hd__tapvpwrvgnd_1
XTAP_850 VGND VPWR sky130_fd_sc_hd__tapvpwrvgnd_1
XFILLER_97_393 VGND VPWR VPWR VGND sky130_ef_sc_hd__decap_12
XFILLER_103_137 VGND VPWR VPWR VGND sky130_ef_sc_hd__decap_12
XFILLER_85_533 VGND VPWR VPWR VGND sky130_ef_sc_hd__decap_12
XFILLER_89_349 VGND VPWR VPWR VGND sky130_ef_sc_hd__decap_12
XFILLER_15_55 VGND VGND VPWR VPWR sky130_fd_sc_hd__fill_1
XFILLER_13_305 VGND VPWR VPWR VGND sky130_ef_sc_hd__decap_12
XFILLER_13_349 VGND VPWR VPWR VGND sky130_ef_sc_hd__decap_12
XFILLER_21_393 VGND VPWR VPWR VGND sky130_ef_sc_hd__decap_12
XFILLER_5_559 VGND VGND VPWR VPWR sky130_fd_sc_hd__fill_1
XFILLER_0_253 VGND VPWR VPWR VGND sky130_ef_sc_hd__decap_12
XFILLER_91_503 VGND VGND VPWR VPWR sky130_fd_sc_hd__fill_1
XFILLER_16_121 VGND VPWR VPWR VGND sky130_ef_sc_hd__decap_12
XPHY_193 VGND VGND VPWR VPWR sky130_fd_sc_hd__decap_3
XPHY_171 VGND VGND VPWR VPWR sky130_fd_sc_hd__decap_3
XPHY_160 VGND VGND VPWR VPWR sky130_fd_sc_hd__decap_3
XPHY_182 VGND VGND VPWR VPWR sky130_fd_sc_hd__decap_3
XFILLER_16_165 VGND VPWR VPWR VGND sky130_ef_sc_hd__decap_12
XFILLER_4_581 VGND VGND VPWR VPWR sky130_fd_sc_hd__decap_6
XFILLER_94_363 VGND VGND VPWR VPWR sky130_fd_sc_hd__fill_1
XFILLER_104_457 VGND VPWR VPWR VGND sky130_ef_sc_hd__decap_12
XFILLER_104_413 VGND VGND VPWR VPWR sky130_fd_sc_hd__decap_6
XFILLER_89_113 VGND VPWR VPWR VGND sky130_ef_sc_hd__decap_12
XFILLER_93_27 VGND VPWR VPWR VGND sky130_ef_sc_hd__decap_12
XTAP_680 VGND VPWR sky130_fd_sc_hd__tapvpwrvgnd_1
XTAP_691 VGND VPWR sky130_fd_sc_hd__tapvpwrvgnd_1
XFILLER_18_419 VGND VGND VPWR VPWR sky130_fd_sc_hd__fill_1
XFILLER_14_625 VGND VPWR VPWR VGND sky130_ef_sc_hd__decap_12
XFILLER_13_113 VGND VPWR VPWR VGND sky130_ef_sc_hd__decap_12
XFILLER_26_65 VGND VPWR VPWR VGND sky130_ef_sc_hd__decap_12
XFILLER_107_273 VGND VGND VPWR VPWR sky130_fd_sc_hd__decap_6
XFILLER_95_149 VGND VPWR VPWR VGND sky130_ef_sc_hd__decap_12
XFILLER_95_105 VGND VGND VPWR VPWR sky130_fd_sc_hd__decap_6
XFILLER_1_573 VGND VPWR VPWR VGND sky130_ef_sc_hd__decap_12
XFILLER_3_69 VGND VPWR VPWR VGND sky130_ef_sc_hd__decap_12
XFILLER_17_485 VGND VPWR VPWR VGND sky130_ef_sc_hd__decap_12
XFILLER_17_441 VGND VGND VPWR VPWR sky130_fd_sc_hd__decap_6
XFILLER_101_405 VGND VPWR VPWR VGND sky130_ef_sc_hd__decap_12
XFILLER_87_617 VGND VPWR VPWR VGND sky130_ef_sc_hd__decap_12
XFILLER_101_449 VGND VPWR VPWR VGND sky130_ef_sc_hd__decap_12
XFILLER_103_15 VGND VPWR VPWR VGND sky130_ef_sc_hd__decap_12
XFILLER_82_300 VGND VPWR VPWR VGND sky130_ef_sc_hd__decap_12
XFILLER_27_205 VGND VPWR VPWR VGND sky130_ef_sc_hd__decap_12
XFILLER_27_249 VGND VPWR VPWR VGND sky130_ef_sc_hd__decap_12
XFILLER_11_617 VGND VPWR VPWR VGND sky130_ef_sc_hd__decap_12
XFILLER_109_505 VGND VGND VPWR VPWR sky130_fd_sc_hd__decap_8
XFILLER_88_27 VGND VGND VPWR VPWR sky130_fd_sc_hd__fill_1
XFILLER_6_109 VGND VPWR VPWR VGND sky130_ef_sc_hd__decap_12
XFILLER_104_265 VGND VPWR VPWR VGND sky130_ef_sc_hd__decap_12
XFILLER_104_221 VGND VPWR VPWR VGND sky130_ef_sc_hd__decap_12
XFILLER_93_609 VGND VGND VPWR VPWR sky130_fd_sc_hd__decap_6
XFILLER_73_300 VGND VPWR VPWR VGND sky130_ef_sc_hd__decap_12
XFILLER_85_193 VGND VGND VPWR VPWR sky130_fd_sc_hd__decap_3
XFILLER_14_433 VGND VPWR VPWR VGND sky130_ef_sc_hd__decap_12
XFILLER_14_477 VGND VPWR VPWR VGND sky130_ef_sc_hd__decap_12
XFILLER_6_643 VGND VGND VPWR VPWR sky130_fd_sc_hd__fill_1
XFILLER_96_469 VGND VGND VPWR VPWR sky130_fd_sc_hd__decap_6
XFILLER_64_300 VGND VPWR VPWR VGND sky130_ef_sc_hd__decap_12
XFILLER_17_293 VGND VPWR VPWR VGND sky130_ef_sc_hd__decap_12
XFILLER_20_469 VGND VGND VPWR VPWR sky130_fd_sc_hd__decap_6
XFILLER_87_447 VGND VGND VPWR VPWR sky130_fd_sc_hd__fill_1
XFILLER_101_279 VGND VGND VPWR VPWR sky130_fd_sc_hd__fill_1
XFILLER_70_314 VGND VPWR VPWR VGND sky130_ef_sc_hd__decap_12
XFILLER_55_300 VGND VPWR VPWR VGND sky130_ef_sc_hd__decap_12
XFILLER_23_55 VGND VGND VPWR VPWR sky130_fd_sc_hd__fill_1
XFILLER_7_429 VGND VPWR VPWR VGND sky130_ef_sc_hd__decap_12
XFILLER_11_447 VGND VGND VPWR VPWR sky130_fd_sc_hd__fill_1
XFILLER_105_541 VGND VPWR VPWR VGND sky130_ef_sc_hd__decap_12
XFILLER_109_335 VGND VGND VPWR VPWR sky130_fd_sc_hd__fill_1
XFILLER_99_15 VGND VPWR VPWR VGND sky130_ef_sc_hd__decap_12
XFILLER_3_3 VGND VPWR VPWR VGND sky130_ef_sc_hd__decap_12
XFILLER_105_585 VGND VPWR VPWR VGND sky130_ef_sc_hd__decap_12
XFILLER_93_417 VGND VPWR VPWR VGND sky130_ef_sc_hd__decap_12
XFILLER_46_300 VGND VPWR VPWR VGND sky130_ef_sc_hd__decap_12
XFILLER_19_503 VGND VGND VPWR VPWR sky130_fd_sc_hd__fill_1
XFILLER_2_189 VGND VGND VPWR VPWR sky130_fd_sc_hd__decap_6
XFILLER_61_336 VGND VGND VPWR VPWR sky130_fd_sc_hd__decap_4
XFILLER_9_57 VGND VPWR VPWR VGND sky130_ef_sc_hd__decap_12
XFILLER_96_233 VGND VPWR VPWR VGND sky130_ef_sc_hd__decap_12
XFILLER_89_81 VGND VPWR VPWR VGND sky130_ef_sc_hd__decap_12
XFILLER_96_277 VGND VPWR VPWR VGND sky130_ef_sc_hd__decap_12
XFILLER_52_314 VGND VPWR VPWR VGND sky130_ef_sc_hd__decap_12
XFILLER_37_300 VGND VPWR VPWR VGND sky130_ef_sc_hd__decap_12
XFILLER_25_517 VGND VPWR VPWR VGND sky130_ef_sc_hd__decap_12
XFILLER_100_27 VGND VGND VPWR VPWR sky130_fd_sc_hd__fill_1
XFILLER_20_233 VGND VPWR VPWR VGND sky130_ef_sc_hd__decap_12
XFILLER_109_47 VGND VGND VPWR VPWR sky130_fd_sc_hd__decap_8
XFILLER_20_277 VGND VPWR VPWR VGND sky130_ef_sc_hd__decap_12
XFILLER_102_533 VGND VPWR VPWR VGND sky130_ef_sc_hd__decap_12
XFILLER_28_333 VGND VGND VPWR VPWR sky130_fd_sc_hd__decap_3
XFILLER_43_336 VGND VGND VPWR VPWR sky130_fd_sc_hd__decap_4
XFILLER_28_377 VGND VPWR VPWR VGND sky130_ef_sc_hd__decap_12
XFILLER_18_77 VGND VGND VPWR VPWR sky130_fd_sc_hd__decap_6
XFILLER_7_237 VGND VPWR VPWR VGND sky130_ef_sc_hd__decap_12
XFILLER_105_393 VGND VPWR VPWR VGND sky130_ef_sc_hd__decap_12
XTAP_509 VGND VPWR sky130_fd_sc_hd__tapvpwrvgnd_1
XFILLER_78_288 VGND VPWR VPWR VGND sky130_ef_sc_hd__decap_12
XFILLER_93_225 VGND VPWR VPWR VGND sky130_ef_sc_hd__decap_12
XFILLER_34_314 VGND VPWR VPWR VGND sky130_ef_sc_hd__decap_12
XFILLER_91_93 VGND VPWR VPWR VGND sky130_ef_sc_hd__decap_12
XFILLER_15_561 VGND VPWR VPWR VGND sky130_ef_sc_hd__decap_12
XFILLER_97_597 VGND VPWR VPWR VGND sky130_ef_sc_hd__decap_12
XFILLER_97_553 VGND VGND VPWR VPWR sky130_fd_sc_hd__decap_6
XFILLER_69_288 VGND VPWR VPWR VGND sky130_ef_sc_hd__decap_12
XFILLER_21_597 VGND VPWR VPWR VGND sky130_ef_sc_hd__decap_12
XFILLER_21_553 VGND VGND VPWR VPWR sky130_fd_sc_hd__decap_6
XFILLER_88_531 VGND VGND VPWR VPWR sky130_fd_sc_hd__fill_1
XFILLER_96_27 VGND VGND VPWR VPWR sky130_fd_sc_hd__fill_1
XFILLER_102_363 VGND VGND VPWR VPWR sky130_fd_sc_hd__fill_1
XFILLER_28_141 VGND VPWR VPWR VGND sky130_ef_sc_hd__decap_12
XFILLER_101_81 VGND VPWR VPWR VGND sky130_ef_sc_hd__decap_12
XFILLER_12_531 VGND VGND VPWR VPWR sky130_fd_sc_hd__fill_1
XFILLER_8_513 VGND VPWR VPWR VGND sky130_ef_sc_hd__decap_12
XFILLER_8_557 VGND VPWR VPWR VGND sky130_ef_sc_hd__decap_12
XFILLER_94_545 VGND VPWR VPWR VGND sky130_ef_sc_hd__decap_12
XFILLER_94_501 VGND VPWR VPWR VGND sky130_ef_sc_hd__decap_12
XFILLER_3_273 VGND VGND VPWR VPWR sky130_fd_sc_hd__decap_6
XTAP_317 VGND VPWR sky130_fd_sc_hd__tapvpwrvgnd_1
XTAP_306 VGND VPWR sky130_fd_sc_hd__tapvpwrvgnd_1
XTAP_328 VGND VPWR sky130_fd_sc_hd__tapvpwrvgnd_1
XTAP_339 VGND VPWR sky130_fd_sc_hd__tapvpwrvgnd_1
XFILLER_94_589 VGND VPWR VPWR VGND sky130_ef_sc_hd__decap_12
XFILLER_30_350 VGND VGND VPWR VPWR sky130_fd_sc_hd__decap_4
XFILLER_15_391 VGND VGND VPWR VPWR sky130_fd_sc_hd__fill_1
XFILLER_106_15 VGND VPWR VPWR VGND sky130_ef_sc_hd__decap_12
XFILLER_103_149 VGND VPWR VPWR VGND sky130_ef_sc_hd__decap_12
XFILLER_103_105 VGND VGND VPWR VPWR sky130_fd_sc_hd__decap_6
XFILLER_89_317 VGND VPWR VPWR VGND sky130_ef_sc_hd__decap_12
XTAP_895 VGND VPWR sky130_fd_sc_hd__tapvpwrvgnd_1
XTAP_873 VGND VPWR sky130_fd_sc_hd__tapvpwrvgnd_1
XTAP_884 VGND VPWR sky130_fd_sc_hd__tapvpwrvgnd_1
XFILLER_97_361 VGND VPWR VPWR VGND sky130_ef_sc_hd__decap_12
XTAP_862 VGND VPWR sky130_fd_sc_hd__tapvpwrvgnd_1
XTAP_840 VGND VPWR sky130_fd_sc_hd__tapvpwrvgnd_1
XTAP_851 VGND VPWR sky130_fd_sc_hd__tapvpwrvgnd_1
XFILLER_85_589 VGND VPWR VPWR VGND sky130_ef_sc_hd__decap_12
XFILLER_85_545 VGND VPWR VPWR VGND sky130_ef_sc_hd__decap_12
XFILLER_85_501 VGND VGND VPWR VPWR sky130_fd_sc_hd__decap_3
XFILLER_26_601 VGND VPWR VPWR VGND sky130_ef_sc_hd__decap_12
XFILLER_26_645 VGND VGND VPWR VPWR sky130_fd_sc_hd__decap_6
XFILLER_25_111 VGND VGND VPWR VPWR sky130_fd_sc_hd__fill_1
XFILLER_13_317 VGND VPWR VPWR VGND sky130_ef_sc_hd__decap_12
XFILLER_21_361 VGND VPWR VPWR VGND sky130_ef_sc_hd__decap_12
XFILLER_5_505 VGND VPWR VPWR VGND sky130_ef_sc_hd__decap_12
XFILLER_103_3 VGND VPWR VPWR VGND sky130_ef_sc_hd__decap_12
XFILLER_0_265 VGND VPWR VPWR VGND sky130_ef_sc_hd__decap_12
XFILLER_0_287 VGND VPWR VPWR VGND sky130_ef_sc_hd__decap_12
XFILLER_91_559 VGND VGND VPWR VPWR sky130_fd_sc_hd__fill_1
XFILLER_16_133 VGND VGND VPWR VPWR sky130_fd_sc_hd__decap_6
XPHY_194 VGND VGND VPWR VPWR sky130_fd_sc_hd__decap_3
XPHY_183 VGND VGND VPWR VPWR sky130_fd_sc_hd__decap_3
XPHY_161 VGND VGND VPWR VPWR sky130_fd_sc_hd__decap_3
XPHY_150 VGND VGND VPWR VPWR sky130_fd_sc_hd__decap_3
XPHY_172 VGND VGND VPWR VPWR sky130_fd_sc_hd__decap_3
XFILLER_16_177 VGND VPWR VPWR VGND sky130_ef_sc_hd__decap_12
XFILLER_8_321 VGND VPWR VPWR VGND sky130_ef_sc_hd__decap_12
XFILLER_99_615 VGND VGND VPWR VPWR sky130_fd_sc_hd__fill_1
XFILLER_8_365 VGND VPWR VPWR VGND sky130_ef_sc_hd__decap_12
XFILLER_101_609 VGND VGND VPWR VPWR sky130_fd_sc_hd__decap_6
XFILLER_97_81 VGND VPWR VPWR VGND sky130_ef_sc_hd__decap_12
XFILLER_86_309 VGND VPWR VPWR VGND sky130_ef_sc_hd__decap_12
XFILLER_90_581 VGND VGND VPWR VPWR sky130_fd_sc_hd__decap_6
XFILLER_23_615 VGND VGND VPWR VPWR sky130_fd_sc_hd__fill_1
XFILLER_10_309 VGND VPWR VPWR VGND sky130_ef_sc_hd__decap_12
XFILLER_104_469 VGND VGND VPWR VPWR sky130_fd_sc_hd__decap_6
XFILLER_89_169 VGND VPWR VPWR VGND sky130_ef_sc_hd__decap_12
XFILLER_89_125 VGND VPWR VPWR VGND sky130_ef_sc_hd__decap_12
XTAP_670 VGND VPWR sky130_fd_sc_hd__tapvpwrvgnd_1
XFILLER_93_39 VGND VPWR VPWR VGND sky130_ef_sc_hd__decap_12
XTAP_681 VGND VPWR sky130_fd_sc_hd__tapvpwrvgnd_1
XTAP_692 VGND VPWR sky130_fd_sc_hd__tapvpwrvgnd_1
XFILLER_14_637 VGND VGND VPWR VPWR sky130_fd_sc_hd__decap_6
XFILLER_26_475 VGND VGND VPWR VPWR sky130_fd_sc_hd__fill_1
XFILLER_13_125 VGND VPWR VPWR VGND sky130_ef_sc_hd__decap_12
XFILLER_13_169 VGND VPWR VPWR VGND sky130_ef_sc_hd__decap_12
XFILLER_26_77 VGND VGND VPWR VPWR sky130_fd_sc_hd__decap_6
XFILLER_5_335 VGND VGND VPWR VPWR sky130_fd_sc_hd__fill_1
XFILLER_1_585 VGND VPWR VPWR VGND sky130_ef_sc_hd__decap_12
XFILLER_1_541 VGND VPWR VPWR VGND sky130_ef_sc_hd__decap_12
XFILLER_3_15 VGND VPWR VPWR VGND sky130_ef_sc_hd__decap_12
XFILLER_17_497 VGND VGND VPWR VPWR sky130_fd_sc_hd__decap_6
XFILLER_9_641 VGND VGND VPWR VPWR sky130_fd_sc_hd__decap_8
XFILLER_8_195 VGND VGND VPWR VPWR sky130_fd_sc_hd__fill_1
XFILLER_101_417 VGND VPWR VPWR VGND sky130_ef_sc_hd__decap_12
XFILLER_87_629 VGND VPWR VPWR VGND sky130_ef_sc_hd__decap_12
XFILLER_103_27 VGND VPWR VPWR VGND sky130_ef_sc_hd__decap_12
XFILLER_82_312 VGND VGND VPWR VPWR sky130_fd_sc_hd__fill_1
XFILLER_67_342 VGND VPWR VPWR VGND sky130_ef_sc_hd__decap_12
XFILLER_86_139 VGND VGND VPWR VPWR sky130_fd_sc_hd__fill_1
XFILLER_27_217 VGND VGND VPWR VPWR sky130_fd_sc_hd__decap_6
XFILLER_11_629 VGND VPWR VPWR VGND sky130_ef_sc_hd__decap_12
XFILLER_10_139 VGND VGND VPWR VPWR sky130_fd_sc_hd__fill_1
XFILLER_104_277 VGND VPWR VPWR VGND sky130_ef_sc_hd__decap_12
XFILLER_104_233 VGND VPWR VPWR VGND sky130_ef_sc_hd__decap_12
XFILLER_92_109 VGND VPWR VPWR VGND sky130_ef_sc_hd__decap_12
XFILLER_73_312 VGND VPWR VPWR VGND sky130_ef_sc_hd__decap_12
XFILLER_14_401 VGND VPWR VPWR VGND sky130_ef_sc_hd__decap_12
XFILLER_14_445 VGND VPWR VPWR VGND sky130_ef_sc_hd__decap_12
XFILLER_14_489 VGND VPWR VPWR VGND sky130_ef_sc_hd__decap_12
XFILLER_92_643 VGND VGND VPWR VPWR sky130_fd_sc_hd__fill_1
XFILLER_64_312 VGND VGND VPWR VPWR sky130_fd_sc_hd__fill_1
XFILLER_49_342 VGND VPWR VPWR VGND sky130_ef_sc_hd__decap_12
XFILLER_24_209 VGND VPWR VPWR VGND sky130_ef_sc_hd__decap_12
XFILLER_1_393 VGND VPWR VPWR VGND sky130_ef_sc_hd__decap_12
XFILLER_17_261 VGND VPWR VPWR VGND sky130_ef_sc_hd__decap_12
XFILLER_101_225 VGND VPWR VPWR VGND sky130_ef_sc_hd__decap_12
XFILLER_70_326 VGND VPWR VPWR VGND sky130_ef_sc_hd__decap_12
XFILLER_55_312 VGND VPWR VPWR VGND sky130_ef_sc_hd__decap_12
XFILLER_99_27 VGND VPWR VPWR VGND sky130_ef_sc_hd__decap_12
XFILLER_90_29 VGND VPWR VPWR VGND sky130_ef_sc_hd__decap_12
XFILLER_105_597 VGND VPWR VPWR VGND sky130_ef_sc_hd__decap_12
XFILLER_105_553 VGND VGND VPWR VPWR sky130_fd_sc_hd__decap_6
XFILLER_93_429 VGND VPWR VPWR VGND sky130_ef_sc_hd__decap_12
XFILLER_19_559 VGND VGND VPWR VPWR sky130_fd_sc_hd__fill_1
XFILLER_46_312 VGND VGND VPWR VPWR sky130_fd_sc_hd__fill_1