*SPEF "ieee 1481-1999"
*DESIGN "manual_macro_placement_test"
*DATE "11:11:11 Fri 11 11, 1111"
*VENDOR "OpenRCX"
*PROGRAM "Parallel Extraction"
*VERSION "1.0"
*DESIGN_FLOW "NAME_SCOPE LOCAL" "PIN_CAP NONE"
*DIVIDER /
*DELIMITER :
*BUS_DELIMITER []
*T_UNIT 1 NS
*C_UNIT 1 PF
*R_UNIT 1 OHM
*L_UNIT 1 HENRY

*NAME_MAP
*3 clk1
*4 clk2
*5 p1
*6 p2
*7 rst1
*8 rst2
*9 x1[0]
*10 x1[10]
*11 x1[11]
*12 x1[12]
*13 x1[13]
*14 x1[14]
*15 x1[15]
*16 x1[16]
*17 x1[17]
*18 x1[18]
*19 x1[19]
*20 x1[1]
*21 x1[20]
*22 x1[21]
*23 x1[22]
*24 x1[23]
*25 x1[24]
*26 x1[25]
*27 x1[26]
*28 x1[27]
*29 x1[28]
*30 x1[29]
*31 x1[2]
*32 x1[30]
*33 x1[31]
*34 x1[3]
*35 x1[4]
*36 x1[5]
*37 x1[6]
*38 x1[7]
*39 x1[8]
*40 x1[9]
*41 x2[0]
*42 x2[10]
*43 x2[11]
*44 x2[12]
*45 x2[13]
*46 x2[14]
*47 x2[15]
*48 x2[16]
*49 x2[17]
*50 x2[18]
*51 x2[19]
*52 x2[1]
*53 x2[20]
*54 x2[21]
*55 x2[22]
*56 x2[23]
*57 x2[24]
*58 x2[25]
*59 x2[26]
*60 x2[27]
*61 x2[28]
*62 x2[29]
*63 x2[2]
*64 x2[30]
*65 x2[31]
*66 x2[3]
*67 x2[4]
*68 x2[5]
*69 x2[6]
*70 x2[7]
*71 x2[8]
*72 x2[9]
*73 y1
*74 y2
*75 net1
*76 net10
*77 net11
*78 net12
*79 net13
*80 net14
*81 net15
*82 net16
*83 net17
*84 net18
*85 net19
*86 net2
*87 net20
*88 net21
*89 net22
*90 net23
*91 net24
*92 net25
*93 net26
*94 net27
*95 net28
*96 net29
*97 net3
*98 net30
*99 net31
*100 net32
*101 net33
*102 net34
*103 net35
*104 net36
*105 net37
*106 net38
*107 net39
*108 net4
*109 net40
*110 net41
*111 net42
*112 net43
*113 net44
*114 net45
*115 net46
*116 net47
*117 net48
*118 net49
*119 net5
*120 net50
*121 net51
*122 net52
*123 net53
*124 net54
*125 net55
*126 net56
*127 net57
*128 net58
*129 net59
*130 net6
*131 net60
*132 net61
*133 net62
*134 net63
*135 net64
*136 net65
*137 net66
*138 net67
*139 net68
*140 net69
*141 net7
*142 net70
*143 net71
*144 net8
*145 net9
*146 FILLER_0_111
*147 FILLER_0_113
*148 FILLER_0_125
*149 FILLER_0_137
*150 FILLER_0_151
*151 FILLER_0_163
*152 FILLER_0_167
*153 FILLER_0_169
*154 FILLER_0_174
*155 FILLER_0_186
*156 FILLER_0_19
*157 FILLER_0_194
*158 FILLER_0_197
*159 FILLER_0_209
*160 FILLER_0_223
*161 FILLER_0_225
*162 FILLER_0_237
*163 FILLER_0_245
*164 FILLER_0_253
*165 FILLER_0_265
*166 FILLER_0_27
*167 FILLER_0_277
*168 FILLER_0_281
*169 FILLER_0_287
*170 FILLER_0_299
*171 FILLER_0_307
*172 FILLER_0_309
*173 FILLER_0_321
*174 FILLER_0_335
*175 FILLER_0_337
*176 FILLER_0_349
*177 FILLER_0_35
*178 FILLER_0_357
*179 FILLER_0_365
*180 FILLER_0_377
*181 FILLER_0_389
*182 FILLER_0_393
*183 FILLER_0_399
*184 FILLER_0_411
*185 FILLER_0_419
*186 FILLER_0_421
*187 FILLER_0_433
*188 FILLER_0_447
*189 FILLER_0_449
*190 FILLER_0_461
*191 FILLER_0_469
*192 FILLER_0_47
*193 FILLER_0_477
*194 FILLER_0_489
*195 FILLER_0_501
*196 FILLER_0_505
*197 FILLER_0_511
*198 FILLER_0_523
*199 FILLER_0_531
*200 FILLER_0_533
*201 FILLER_0_545
*202 FILLER_0_55
*203 FILLER_0_555
*204 FILLER_0_559
*205 FILLER_0_561
*206 FILLER_0_57
*207 FILLER_0_573
*208 FILLER_0_581
*209 FILLER_0_589
*210 FILLER_0_601
*211 FILLER_0_613
*212 FILLER_0_617
*213 FILLER_0_623
*214 FILLER_0_63
*215 FILLER_0_635
*216 FILLER_0_643
*217 FILLER_0_7
*218 FILLER_0_75
*219 FILLER_0_83
*220 FILLER_0_85
*221 FILLER_0_97
*222 FILLER_100_109
*223 FILLER_100_121
*224 FILLER_100_133
*225 FILLER_100_139
*226 FILLER_100_141
*227 FILLER_100_15
*228 FILLER_100_153
*229 FILLER_100_165
*230 FILLER_100_177
*231 FILLER_100_189
*232 FILLER_100_195
*233 FILLER_100_197
*234 FILLER_100_209
*235 FILLER_100_221
*236 FILLER_100_233
*237 FILLER_100_245
*238 FILLER_100_251
*239 FILLER_100_253
*240 FILLER_100_265
*241 FILLER_100_27
*242 FILLER_100_277
*243 FILLER_100_289
*244 FILLER_100_29
*245 FILLER_100_3
*246 FILLER_100_301
*247 FILLER_100_307
*248 FILLER_100_309
*249 FILLER_100_321
*250 FILLER_100_333
*251 FILLER_100_345
*252 FILLER_100_357
*253 FILLER_100_363
*254 FILLER_100_365
*255 FILLER_100_377
*256 FILLER_100_389
*257 FILLER_100_401
*258 FILLER_100_41
*259 FILLER_100_413
*260 FILLER_100_419
*261 FILLER_100_421
*262 FILLER_100_433
*263 FILLER_100_445
*264 FILLER_100_457
*265 FILLER_100_469
*266 FILLER_100_475
*267 FILLER_100_477
*268 FILLER_100_489
*269 FILLER_100_501
*270 FILLER_100_513
*271 FILLER_100_525
*272 FILLER_100_53
*273 FILLER_100_531
*274 FILLER_100_533
*275 FILLER_100_545
*276 FILLER_100_557
*277 FILLER_100_569
*278 FILLER_100_581
*279 FILLER_100_587
*280 FILLER_100_589
*281 FILLER_100_601
*282 FILLER_100_613
*283 FILLER_100_625
*284 FILLER_100_637
*285 FILLER_100_643
*286 FILLER_100_645
*287 FILLER_100_65
*288 FILLER_100_77
*289 FILLER_100_83
*290 FILLER_100_85
*291 FILLER_100_97
*292 FILLER_101_105
*293 FILLER_101_111
*294 FILLER_101_113
*295 FILLER_101_125
*296 FILLER_101_137
*297 FILLER_101_149
*298 FILLER_101_15
*299 FILLER_101_161
*300 FILLER_101_167
*301 FILLER_101_169
*302 FILLER_101_181
*303 FILLER_101_193
*304 FILLER_101_205
*305 FILLER_101_217
*306 FILLER_101_223
*307 FILLER_101_225
*308 FILLER_101_237
*309 FILLER_101_249
*310 FILLER_101_261
*311 FILLER_101_27
*312 FILLER_101_273
*313 FILLER_101_279
*314 FILLER_101_281
*315 FILLER_101_293
*316 FILLER_101_3
*317 FILLER_101_305
*318 FILLER_101_317
*319 FILLER_101_329
*320 FILLER_101_335
*321 FILLER_101_337
*322 FILLER_101_349
*323 FILLER_101_361
*324 FILLER_101_373
*325 FILLER_101_385
*326 FILLER_101_39
*327 FILLER_101_391
*328 FILLER_101_393
*329 FILLER_101_405
*330 FILLER_101_417
*331 FILLER_101_429
*332 FILLER_101_441
*333 FILLER_101_447
*334 FILLER_101_449
*335 FILLER_101_461
*336 FILLER_101_473
*337 FILLER_101_485
*338 FILLER_101_497
*339 FILLER_101_503
*340 FILLER_101_505
*341 FILLER_101_51
*342 FILLER_101_517
*343 FILLER_101_529
*344 FILLER_101_541
*345 FILLER_101_55
*346 FILLER_101_553
*347 FILLER_101_559
*348 FILLER_101_561
*349 FILLER_101_57
*350 FILLER_101_573
*351 FILLER_101_585
*352 FILLER_101_597
*353 FILLER_101_609
*354 FILLER_101_615
*355 FILLER_101_617
*356 FILLER_101_629
*357 FILLER_101_641
*358 FILLER_101_69
*359 FILLER_101_81
*360 FILLER_101_93
*361 FILLER_102_109
*362 FILLER_102_121
*363 FILLER_102_133
*364 FILLER_102_139
*365 FILLER_102_141
*366 FILLER_102_153
*367 FILLER_102_165
*368 FILLER_102_177
*369 FILLER_102_189
*370 FILLER_102_19
*371 FILLER_102_195
*372 FILLER_102_197
*373 FILLER_102_209
*374 FILLER_102_221
*375 FILLER_102_233
*376 FILLER_102_245
*377 FILLER_102_251
*378 FILLER_102_253
*379 FILLER_102_265
*380 FILLER_102_27
*381 FILLER_102_277
*382 FILLER_102_289
*383 FILLER_102_29
*384 FILLER_102_301
*385 FILLER_102_307
*386 FILLER_102_309
*387 FILLER_102_321
*388 FILLER_102_333
*389 FILLER_102_345
*390 FILLER_102_357
*391 FILLER_102_363
*392 FILLER_102_365
*393 FILLER_102_377
*394 FILLER_102_389
*395 FILLER_102_401
*396 FILLER_102_41
*397 FILLER_102_413
*398 FILLER_102_419
*399 FILLER_102_421
*400 FILLER_102_433
*401 FILLER_102_445
*402 FILLER_102_457
*403 FILLER_102_469
*404 FILLER_102_475
*405 FILLER_102_477
*406 FILLER_102_489
*407 FILLER_102_501
*408 FILLER_102_513
*409 FILLER_102_525
*410 FILLER_102_53
*411 FILLER_102_531
*412 FILLER_102_533
*413 FILLER_102_545
*414 FILLER_102_557
*415 FILLER_102_569
*416 FILLER_102_581
*417 FILLER_102_587
*418 FILLER_102_589
*419 FILLER_102_601
*420 FILLER_102_613
*421 FILLER_102_625
*422 FILLER_102_637
*423 FILLER_102_643
*424 FILLER_102_645
*425 FILLER_102_65
*426 FILLER_102_7
*427 FILLER_102_77
*428 FILLER_102_83
*429 FILLER_102_85
*430 FILLER_102_97
*431 FILLER_103_105
*432 FILLER_103_111
*433 FILLER_103_113
*434 FILLER_103_125
*435 FILLER_103_137
*436 FILLER_103_149
*437 FILLER_103_15
*438 FILLER_103_161
*439 FILLER_103_167
*440 FILLER_103_169
*441 FILLER_103_181
*442 FILLER_103_193
*443 FILLER_103_205
*444 FILLER_103_217
*445 FILLER_103_223
*446 FILLER_103_225
*447 FILLER_103_237
*448 FILLER_103_249
*449 FILLER_103_261
*450 FILLER_103_27
*451 FILLER_103_273
*452 FILLER_103_279
*453 FILLER_103_281
*454 FILLER_103_293
*455 FILLER_103_3
*456 FILLER_103_305
*457 FILLER_103_317
*458 FILLER_103_329
*459 FILLER_103_335
*460 FILLER_103_337
*461 FILLER_103_349
*462 FILLER_103_361
*463 FILLER_103_373
*464 FILLER_103_385
*465 FILLER_103_39
*466 FILLER_103_391
*467 FILLER_103_393
*468 FILLER_103_405
*469 FILLER_103_417
*470 FILLER_103_429
*471 FILLER_103_441
*472 FILLER_103_447
*473 FILLER_103_449
*474 FILLER_103_461
*475 FILLER_103_473
*476 FILLER_103_485
*477 FILLER_103_497
*478 FILLER_103_503
*479 FILLER_103_505
*480 FILLER_103_51
*481 FILLER_103_517
*482 FILLER_103_529
*483 FILLER_103_541
*484 FILLER_103_55
*485 FILLER_103_553
*486 FILLER_103_559
*487 FILLER_103_561
*488 FILLER_103_57
*489 FILLER_103_573
*490 FILLER_103_585
*491 FILLER_103_597
*492 FILLER_103_609
*493 FILLER_103_615
*494 FILLER_103_617
*495 FILLER_103_629
*496 FILLER_103_641
*497 FILLER_103_649
*498 FILLER_103_69
*499 FILLER_103_81
*500 FILLER_103_93
*501 FILLER_104_109
*502 FILLER_104_121
*503 FILLER_104_133
*504 FILLER_104_139
*505 FILLER_104_141
*506 FILLER_104_15
*507 FILLER_104_153
*508 FILLER_104_165
*509 FILLER_104_177
*510 FILLER_104_189
*511 FILLER_104_195
*512 FILLER_104_197
*513 FILLER_104_209
*514 FILLER_104_221
*515 FILLER_104_233
*516 FILLER_104_245
*517 FILLER_104_251
*518 FILLER_104_253
*519 FILLER_104_265
*520 FILLER_104_27
*521 FILLER_104_277
*522 FILLER_104_289
*523 FILLER_104_29
*524 FILLER_104_3
*525 FILLER_104_301
*526 FILLER_104_307
*527 FILLER_104_309
*528 FILLER_104_321
*529 FILLER_104_333
*530 FILLER_104_345
*531 FILLER_104_357
*532 FILLER_104_363
*533 FILLER_104_365
*534 FILLER_104_377
*535 FILLER_104_389
*536 FILLER_104_401
*537 FILLER_104_41
*538 FILLER_104_413
*539 FILLER_104_419
*540 FILLER_104_421
*541 FILLER_104_433
*542 FILLER_104_445
*543 FILLER_104_457
*544 FILLER_104_469
*545 FILLER_104_475
*546 FILLER_104_477
*547 FILLER_104_489
*548 FILLER_104_501
*549 FILLER_104_513
*550 FILLER_104_525
*551 FILLER_104_53
*552 FILLER_104_531
*553 FILLER_104_533
*554 FILLER_104_545
*555 FILLER_104_557
*556 FILLER_104_569
*557 FILLER_104_581
*558 FILLER_104_587
*559 FILLER_104_589
*560 FILLER_104_601
*561 FILLER_104_613
*562 FILLER_104_625
*563 FILLER_104_637
*564 FILLER_104_643
*565 FILLER_104_645
*566 FILLER_104_65
*567 FILLER_104_77
*568 FILLER_104_83
*569 FILLER_104_85
*570 FILLER_104_97
*571 FILLER_105_105
*572 FILLER_105_111
*573 FILLER_105_113
*574 FILLER_105_125
*575 FILLER_105_137
*576 FILLER_105_149
*577 FILLER_105_15
*578 FILLER_105_161
*579 FILLER_105_167
*580 FILLER_105_169
*581 FILLER_105_181
*582 FILLER_105_193
*583 FILLER_105_205
*584 FILLER_105_217
*585 FILLER_105_223
*586 FILLER_105_225
*587 FILLER_105_237
*588 FILLER_105_249
*589 FILLER_105_261
*590 FILLER_105_27
*591 FILLER_105_273
*592 FILLER_105_279
*593 FILLER_105_281
*594 FILLER_105_293
*595 FILLER_105_3
*596 FILLER_105_305
*597 FILLER_105_317
*598 FILLER_105_329
*599 FILLER_105_335
*600 FILLER_105_337
*601 FILLER_105_349
*602 FILLER_105_361
*603 FILLER_105_373
*604 FILLER_105_385
*605 FILLER_105_39
*606 FILLER_105_391
*607 FILLER_105_393
*608 FILLER_105_405
*609 FILLER_105_417
*610 FILLER_105_429
*611 FILLER_105_441
*612 FILLER_105_447
*613 FILLER_105_449
*614 FILLER_105_461
*615 FILLER_105_473
*616 FILLER_105_485
*617 FILLER_105_497
*618 FILLER_105_503
*619 FILLER_105_505
*620 FILLER_105_51
*621 FILLER_105_517
*622 FILLER_105_529
*623 FILLER_105_541
*624 FILLER_105_55
*625 FILLER_105_553
*626 FILLER_105_559
*627 FILLER_105_561
*628 FILLER_105_57
*629 FILLER_105_573
*630 FILLER_105_585
*631 FILLER_105_597
*632 FILLER_105_609
*633 FILLER_105_615
*634 FILLER_105_617
*635 FILLER_105_629
*636 FILLER_105_641
*637 FILLER_105_649
*638 FILLER_105_69
*639 FILLER_105_81
*640 FILLER_105_93
*641 FILLER_106_109
*642 FILLER_106_121
*643 FILLER_106_133
*644 FILLER_106_139
*645 FILLER_106_141
*646 FILLER_106_15
*647 FILLER_106_153
*648 FILLER_106_165
*649 FILLER_106_177
*650 FILLER_106_189
*651 FILLER_106_195
*652 FILLER_106_197
*653 FILLER_106_209
*654 FILLER_106_221
*655 FILLER_106_233
*656 FILLER_106_245
*657 FILLER_106_251
*658 FILLER_106_253
*659 FILLER_106_265
*660 FILLER_106_27
*661 FILLER_106_277
*662 FILLER_106_289
*663 FILLER_106_29
*664 FILLER_106_3
*665 FILLER_106_301
*666 FILLER_106_307
*667 FILLER_106_309
*668 FILLER_106_321
*669 FILLER_106_333
*670 FILLER_106_345
*671 FILLER_106_357
*672 FILLER_106_363
*673 FILLER_106_365
*674 FILLER_106_377
*675 FILLER_106_389
*676 FILLER_106_401
*677 FILLER_106_41
*678 FILLER_106_413
*679 FILLER_106_419
*680 FILLER_106_421
*681 FILLER_106_433
*682 FILLER_106_445
*683 FILLER_106_457
*684 FILLER_106_469
*685 FILLER_106_475
*686 FILLER_106_477
*687 FILLER_106_489
*688 FILLER_106_501
*689 FILLER_106_513
*690 FILLER_106_525
*691 FILLER_106_53
*692 FILLER_106_531
*693 FILLER_106_533
*694 FILLER_106_545
*695 FILLER_106_557
*696 FILLER_106_569
*697 FILLER_106_581
*698 FILLER_106_587
*699 FILLER_106_589
*700 FILLER_106_601
*701 FILLER_106_613
*702 FILLER_106_625
*703 FILLER_106_637
*704 FILLER_106_643
*705 FILLER_106_645
*706 FILLER_106_65
*707 FILLER_106_77
*708 FILLER_106_83
*709 FILLER_106_85
*710 FILLER_106_97
*711 FILLER_107_105
*712 FILLER_107_111
*713 FILLER_107_113
*714 FILLER_107_125
*715 FILLER_107_137
*716 FILLER_107_149
*717 FILLER_107_15
*718 FILLER_107_161
*719 FILLER_107_167
*720 FILLER_107_169
*721 FILLER_107_181
*722 FILLER_107_193
*723 FILLER_107_205
*724 FILLER_107_217
*725 FILLER_107_223
*726 FILLER_107_225
*727 FILLER_107_237
*728 FILLER_107_249
*729 FILLER_107_261
*730 FILLER_107_27
*731 FILLER_107_273
*732 FILLER_107_279
*733 FILLER_107_281
*734 FILLER_107_293
*735 FILLER_107_3
*736 FILLER_107_305
*737 FILLER_107_317
*738 FILLER_107_329
*739 FILLER_107_335
*740 FILLER_107_337
*741 FILLER_107_349
*742 FILLER_107_361
*743 FILLER_107_373
*744 FILLER_107_385
*745 FILLER_107_39
*746 FILLER_107_391
*747 FILLER_107_393
*748 FILLER_107_405
*749 FILLER_107_417
*750 FILLER_107_429
*751 FILLER_107_441
*752 FILLER_107_447
*753 FILLER_107_449
*754 FILLER_107_461
*755 FILLER_107_473
*756 FILLER_107_485
*757 FILLER_107_497
*758 FILLER_107_503
*759 FILLER_107_505
*760 FILLER_107_51
*761 FILLER_107_517
*762 FILLER_107_529
*763 FILLER_107_541
*764 FILLER_107_55
*765 FILLER_107_553
*766 FILLER_107_559
*767 FILLER_107_561
*768 FILLER_107_57
*769 FILLER_107_573
*770 FILLER_107_585
*771 FILLER_107_597
*772 FILLER_107_609
*773 FILLER_107_615
*774 FILLER_107_617
*775 FILLER_107_629
*776 FILLER_107_641
*777 FILLER_107_69
*778 FILLER_107_81
*779 FILLER_107_93
*780 FILLER_108_109
*781 FILLER_108_121
*782 FILLER_108_133
*783 FILLER_108_139
*784 FILLER_108_141
*785 FILLER_108_15
*786 FILLER_108_153
*787 FILLER_108_165
*788 FILLER_108_177
*789 FILLER_108_189
*790 FILLER_108_195
*791 FILLER_108_197
*792 FILLER_108_209
*793 FILLER_108_221
*794 FILLER_108_233
*795 FILLER_108_245
*796 FILLER_108_251
*797 FILLER_108_253
*798 FILLER_108_265
*799 FILLER_108_27
*800 FILLER_108_277
*801 FILLER_108_289
*802 FILLER_108_29
*803 FILLER_108_3
*804 FILLER_108_301
*805 FILLER_108_307
*806 FILLER_108_309
*807 FILLER_108_321
*808 FILLER_108_333
*809 FILLER_108_345
*810 FILLER_108_357
*811 FILLER_108_363
*812 FILLER_108_365
*813 FILLER_108_377
*814 FILLER_108_389
*815 FILLER_108_401
*816 FILLER_108_41
*817 FILLER_108_413
*818 FILLER_108_419
*819 FILLER_108_421
*820 FILLER_108_433
*821 FILLER_108_445
*822 FILLER_108_457
*823 FILLER_108_469
*824 FILLER_108_475
*825 FILLER_108_477
*826 FILLER_108_489
*827 FILLER_108_501
*828 FILLER_108_513
*829 FILLER_108_525
*830 FILLER_108_53
*831 FILLER_108_531
*832 FILLER_108_533
*833 FILLER_108_545
*834 FILLER_108_557
*835 FILLER_108_569
*836 FILLER_108_581
*837 FILLER_108_587
*838 FILLER_108_589
*839 FILLER_108_601
*840 FILLER_108_613
*841 FILLER_108_625
*842 FILLER_108_637
*843 FILLER_108_643
*844 FILLER_108_645
*845 FILLER_108_65
*846 FILLER_108_77
*847 FILLER_108_83
*848 FILLER_108_85
*849 FILLER_108_97
*850 FILLER_109_105
*851 FILLER_109_111
*852 FILLER_109_113
*853 FILLER_109_12
*854 FILLER_109_125
*855 FILLER_109_137
*856 FILLER_109_141
*857 FILLER_109_147
*858 FILLER_109_159
*859 FILLER_109_167
*860 FILLER_109_169
*861 FILLER_109_177
*862 FILLER_109_182
*863 FILLER_109_194
*864 FILLER_109_197
*865 FILLER_109_209
*866 FILLER_109_217
*867 FILLER_109_223
*868 FILLER_109_225
*869 FILLER_109_237
*870 FILLER_109_24
*871 FILLER_109_249
*872 FILLER_109_253
*873 FILLER_109_258
*874 FILLER_109_270
*875 FILLER_109_278
*876 FILLER_109_281
*877 FILLER_109_289
*878 FILLER_109_29
*879 FILLER_109_300
*880 FILLER_109_309
*881 FILLER_109_321
*882 FILLER_109_329
*883 FILLER_109_335
*884 FILLER_109_337
*885 FILLER_109_349
*886 FILLER_109_35
*887 FILLER_109_361
*888 FILLER_109_365
*889 FILLER_109_377
*890 FILLER_109_389
*891 FILLER_109_393
*892 FILLER_109_401
*893 FILLER_109_406
*894 FILLER_109_418
*895 FILLER_109_421
*896 FILLER_109_433
*897 FILLER_109_441
*898 FILLER_109_447
*899 FILLER_109_449
*900 FILLER_109_461
*901 FILLER_109_47
*902 FILLER_109_473
*903 FILLER_109_477
*904 FILLER_109_483
*905 FILLER_109_495
*906 FILLER_109_503
*907 FILLER_109_505
*908 FILLER_109_513
*909 FILLER_109_518
*910 FILLER_109_530
*911 FILLER_109_533
*912 FILLER_109_545
*913 FILLER_109_55
*914 FILLER_109_553
*915 FILLER_109_559
*916 FILLER_109_561
*917 FILLER_109_57
*918 FILLER_109_573
*919 FILLER_109_585
*920 FILLER_109_589
*921 FILLER_109_594
*922 FILLER_109_606
*923 FILLER_109_614
*924 FILLER_109_617
*925 FILLER_109_625
*926 FILLER_109_630
*927 FILLER_109_642
*928 FILLER_109_645
*929 FILLER_109_65
*930 FILLER_109_70
*931 FILLER_109_82
*932 FILLER_109_85
*933 FILLER_109_97
*934 FILLER_10_109
*935 FILLER_10_121
*936 FILLER_10_133
*937 FILLER_10_139
*938 FILLER_10_141
*939 FILLER_10_15
*940 FILLER_10_153
*941 FILLER_10_165
*942 FILLER_10_177
*943 FILLER_10_189
*944 FILLER_10_195
*945 FILLER_10_197
*946 FILLER_10_209
*947 FILLER_10_221
*948 FILLER_10_233
*949 FILLER_10_245
*950 FILLER_10_251
*951 FILLER_10_253
*952 FILLER_10_265
*953 FILLER_10_27
*954 FILLER_10_277
*955 FILLER_10_289
*956 FILLER_10_29
*957 FILLER_10_3
*958 FILLER_10_301
*959 FILLER_10_307
*960 FILLER_10_309
*961 FILLER_10_321
*962 FILLER_10_333
*963 FILLER_10_345
*964 FILLER_10_353
*965 FILLER_10_41
*966 FILLER_10_53
*967 FILLER_10_65
*968 FILLER_10_77
*969 FILLER_10_83
*970 FILLER_10_85
*971 FILLER_10_97
*972 FILLER_11_105
*973 FILLER_11_111
*974 FILLER_11_113
*975 FILLER_11_125
*976 FILLER_11_137
*977 FILLER_11_149
*978 FILLER_11_15
*979 FILLER_11_161
*980 FILLER_11_167
*981 FILLER_11_169
*982 FILLER_11_181
*983 FILLER_11_193
*984 FILLER_11_205
*985 FILLER_11_217
*986 FILLER_11_223
*987 FILLER_11_225
*988 FILLER_11_237
*989 FILLER_11_249
*990 FILLER_11_261
*991 FILLER_11_27
*992 FILLER_11_273
*993 FILLER_11_279
*994 FILLER_11_281
*995 FILLER_11_293
*996 FILLER_11_3
*997 FILLER_11_305
*998 FILLER_11_317
*999 FILLER_11_329
*1000 FILLER_11_335
*1001 FILLER_11_337
*1002 FILLER_11_349
*1003 FILLER_11_353
*1004 FILLER_11_39
*1005 FILLER_11_51
*1006 FILLER_11_55
*1007 FILLER_11_57
*1008 FILLER_11_69
*1009 FILLER_11_81
*1010 FILLER_11_93
*1011 FILLER_12_109
*1012 FILLER_12_121
*1013 FILLER_12_133
*1014 FILLER_12_139
*1015 FILLER_12_141
*1016 FILLER_12_15
*1017 FILLER_12_153
*1018 FILLER_12_165
*1019 FILLER_12_177
*1020 FILLER_12_189
*1021 FILLER_12_195
*1022 FILLER_12_197
*1023 FILLER_12_209
*1024 FILLER_12_221
*1025 FILLER_12_233
*1026 FILLER_12_245
*1027 FILLER_12_251
*1028 FILLER_12_253
*1029 FILLER_12_265
*1030 FILLER_12_27
*1031 FILLER_12_277
*1032 FILLER_12_289
*1033 FILLER_12_29
*1034 FILLER_12_3
*1035 FILLER_12_301
*1036 FILLER_12_307
*1037 FILLER_12_309
*1038 FILLER_12_321
*1039 FILLER_12_333
*1040 FILLER_12_345
*1041 FILLER_12_353
*1042 FILLER_12_41
*1043 FILLER_12_53
*1044 FILLER_12_65
*1045 FILLER_12_77
*1046 FILLER_12_83
*1047 FILLER_12_85
*1048 FILLER_12_97
*1049 FILLER_13_105
*1050 FILLER_13_111
*1051 FILLER_13_113
*1052 FILLER_13_125
*1053 FILLER_13_137
*1054 FILLER_13_149
*1055 FILLER_13_15
*1056 FILLER_13_161
*1057 FILLER_13_167
*1058 FILLER_13_169
*1059 FILLER_13_181
*1060 FILLER_13_193
*1061 FILLER_13_205
*1062 FILLER_13_217
*1063 FILLER_13_223
*1064 FILLER_13_225
*1065 FILLER_13_237
*1066 FILLER_13_249
*1067 FILLER_13_261
*1068 FILLER_13_27
*1069 FILLER_13_273
*1070 FILLER_13_279
*1071 FILLER_13_281
*1072 FILLER_13_293
*1073 FILLER_13_3
*1074 FILLER_13_305
*1075 FILLER_13_317
*1076 FILLER_13_329
*1077 FILLER_13_335
*1078 FILLER_13_337
*1079 FILLER_13_349
*1080 FILLER_13_353
*1081 FILLER_13_39
*1082 FILLER_13_51
*1083 FILLER_13_55
*1084 FILLER_13_57
*1085 FILLER_13_69
*1086 FILLER_13_81
*1087 FILLER_13_93
*1088 FILLER_14_109
*1089 FILLER_14_121
*1090 FILLER_14_133
*1091 FILLER_14_139
*1092 FILLER_14_141
*1093 FILLER_14_15
*1094 FILLER_14_153
*1095 FILLER_14_165
*1096 FILLER_14_177
*1097 FILLER_14_189
*1098 FILLER_14_195
*1099 FILLER_14_197
*1100 FILLER_14_209
*1101 FILLER_14_221
*1102 FILLER_14_233
*1103 FILLER_14_245
*1104 FILLER_14_251
*1105 FILLER_14_253
*1106 FILLER_14_265
*1107 FILLER_14_27
*1108 FILLER_14_277
*1109 FILLER_14_289
*1110 FILLER_14_29
*1111 FILLER_14_3
*1112 FILLER_14_301
*1113 FILLER_14_307
*1114 FILLER_14_309
*1115 FILLER_14_321
*1116 FILLER_14_333
*1117 FILLER_14_345
*1118 FILLER_14_353
*1119 FILLER_14_41
*1120 FILLER_14_53
*1121 FILLER_14_65
*1122 FILLER_14_77
*1123 FILLER_14_83
*1124 FILLER_14_85
*1125 FILLER_14_97
*1126 FILLER_15_105
*1127 FILLER_15_111
*1128 FILLER_15_113
*1129 FILLER_15_125
*1130 FILLER_15_137
*1131 FILLER_15_149
*1132 FILLER_15_161
*1133 FILLER_15_167
*1134 FILLER_15_169
*1135 FILLER_15_181
*1136 FILLER_15_19
*1137 FILLER_15_193
*1138 FILLER_15_205
*1139 FILLER_15_217
*1140 FILLER_15_223
*1141 FILLER_15_225
*1142 FILLER_15_237
*1143 FILLER_15_249
*1144 FILLER_15_261
*1145 FILLER_15_273
*1146 FILLER_15_279
*1147 FILLER_15_281
*1148 FILLER_15_293
*1149 FILLER_15_305
*1150 FILLER_15_31
*1151 FILLER_15_317
*1152 FILLER_15_329
*1153 FILLER_15_335
*1154 FILLER_15_337
*1155 FILLER_15_349
*1156 FILLER_15_353
*1157 FILLER_15_43
*1158 FILLER_15_55
*1159 FILLER_15_57
*1160 FILLER_15_69
*1161 FILLER_15_7
*1162 FILLER_15_81
*1163 FILLER_15_93
*1164 FILLER_16_109
*1165 FILLER_16_121
*1166 FILLER_16_133
*1167 FILLER_16_139
*1168 FILLER_16_141
*1169 FILLER_16_15
*1170 FILLER_16_153
*1171 FILLER_16_165
*1172 FILLER_16_177
*1173 FILLER_16_189
*1174 FILLER_16_195
*1175 FILLER_16_197
*1176 FILLER_16_209
*1177 FILLER_16_221
*1178 FILLER_16_233
*1179 FILLER_16_245
*1180 FILLER_16_251
*1181 FILLER_16_253
*1182 FILLER_16_265
*1183 FILLER_16_27
*1184 FILLER_16_277
*1185 FILLER_16_289
*1186 FILLER_16_29
*1187 FILLER_16_3
*1188 FILLER_16_301
*1189 FILLER_16_307
*1190 FILLER_16_309
*1191 FILLER_16_321
*1192 FILLER_16_333
*1193 FILLER_16_345
*1194 FILLER_16_353
*1195 FILLER_16_41
*1196 FILLER_16_53
*1197 FILLER_16_65
*1198 FILLER_16_77
*1199 FILLER_16_83
*1200 FILLER_16_85
*1201 FILLER_16_97
*1202 FILLER_17_105
*1203 FILLER_17_111
*1204 FILLER_17_113
*1205 FILLER_17_125
*1206 FILLER_17_137
*1207 FILLER_17_149
*1208 FILLER_17_15
*1209 FILLER_17_161
*1210 FILLER_17_167
*1211 FILLER_17_169
*1212 FILLER_17_181
*1213 FILLER_17_193
*1214 FILLER_17_205
*1215 FILLER_17_217
*1216 FILLER_17_223
*1217 FILLER_17_225
*1218 FILLER_17_237
*1219 FILLER_17_249
*1220 FILLER_17_261
*1221 FILLER_17_27
*1222 FILLER_17_273
*1223 FILLER_17_279
*1224 FILLER_17_281
*1225 FILLER_17_293
*1226 FILLER_17_3
*1227 FILLER_17_305
*1228 FILLER_17_317
*1229 FILLER_17_329
*1230 FILLER_17_335
*1231 FILLER_17_337
*1232 FILLER_17_349
*1233 FILLER_17_353
*1234 FILLER_17_39
*1235 FILLER_17_51
*1236 FILLER_17_55
*1237 FILLER_17_57
*1238 FILLER_17_69
*1239 FILLER_17_81
*1240 FILLER_17_93
*1241 FILLER_18_109
*1242 FILLER_18_121
*1243 FILLER_18_133
*1244 FILLER_18_139
*1245 FILLER_18_141
*1246 FILLER_18_15
*1247 FILLER_18_153
*1248 FILLER_18_165
*1249 FILLER_18_177
*1250 FILLER_18_189
*1251 FILLER_18_195
*1252 FILLER_18_197
*1253 FILLER_18_209
*1254 FILLER_18_221
*1255 FILLER_18_233
*1256 FILLER_18_245
*1257 FILLER_18_251
*1258 FILLER_18_253
*1259 FILLER_18_265
*1260 FILLER_18_27
*1261 FILLER_18_277
*1262 FILLER_18_289
*1263 FILLER_18_29
*1264 FILLER_18_3
*1265 FILLER_18_301
*1266 FILLER_18_307
*1267 FILLER_18_309
*1268 FILLER_18_321
*1269 FILLER_18_333
*1270 FILLER_18_345
*1271 FILLER_18_353
*1272 FILLER_18_41
*1273 FILLER_18_53
*1274 FILLER_18_65
*1275 FILLER_18_77
*1276 FILLER_18_83
*1277 FILLER_18_85
*1278 FILLER_18_97
*1279 FILLER_19_105
*1280 FILLER_19_111
*1281 FILLER_19_113
*1282 FILLER_19_125
*1283 FILLER_19_137
*1284 FILLER_19_149
*1285 FILLER_19_15
*1286 FILLER_19_161
*1287 FILLER_19_167
*1288 FILLER_19_169
*1289 FILLER_19_181
*1290 FILLER_19_193
*1291 FILLER_19_205
*1292 FILLER_19_217
*1293 FILLER_19_223
*1294 FILLER_19_225
*1295 FILLER_19_237
*1296 FILLER_19_249
*1297 FILLER_19_261
*1298 FILLER_19_27
*1299 FILLER_19_273
*1300 FILLER_19_279
*1301 FILLER_19_281
*1302 FILLER_19_293
*1303 FILLER_19_3
*1304 FILLER_19_305
*1305 FILLER_19_317
*1306 FILLER_19_329
*1307 FILLER_19_335
*1308 FILLER_19_337
*1309 FILLER_19_349
*1310 FILLER_19_353
*1311 FILLER_19_39
*1312 FILLER_19_51
*1313 FILLER_19_55
*1314 FILLER_19_57
*1315 FILLER_19_69
*1316 FILLER_19_81
*1317 FILLER_19_93
*1318 FILLER_1_105
*1319 FILLER_1_111
*1320 FILLER_1_113
*1321 FILLER_1_125
*1322 FILLER_1_137
*1323 FILLER_1_149
*1324 FILLER_1_15
*1325 FILLER_1_161
*1326 FILLER_1_167
*1327 FILLER_1_169
*1328 FILLER_1_181
*1329 FILLER_1_193
*1330 FILLER_1_205
*1331 FILLER_1_217
*1332 FILLER_1_223
*1333 FILLER_1_225
*1334 FILLER_1_237
*1335 FILLER_1_249
*1336 FILLER_1_261
*1337 FILLER_1_27
*1338 FILLER_1_273
*1339 FILLER_1_279
*1340 FILLER_1_281
*1341 FILLER_1_293
*1342 FILLER_1_3
*1343 FILLER_1_305
*1344 FILLER_1_317
*1345 FILLER_1_329
*1346 FILLER_1_335
*1347 FILLER_1_337
*1348 FILLER_1_349
*1349 FILLER_1_361
*1350 FILLER_1_373
*1351 FILLER_1_385
*1352 FILLER_1_39
*1353 FILLER_1_391
*1354 FILLER_1_393
*1355 FILLER_1_405
*1356 FILLER_1_417
*1357 FILLER_1_429
*1358 FILLER_1_441
*1359 FILLER_1_447
*1360 FILLER_1_449
*1361 FILLER_1_461
*1362 FILLER_1_473
*1363 FILLER_1_485
*1364 FILLER_1_497
*1365 FILLER_1_503
*1366 FILLER_1_505
*1367 FILLER_1_51
*1368 FILLER_1_517
*1369 FILLER_1_529
*1370 FILLER_1_541
*1371 FILLER_1_55
*1372 FILLER_1_553
*1373 FILLER_1_559
*1374 FILLER_1_561
*1375 FILLER_1_57
*1376 FILLER_1_573
*1377 FILLER_1_585
*1378 FILLER_1_597
*1379 FILLER_1_609
*1380 FILLER_1_615
*1381 FILLER_1_617
*1382 FILLER_1_629
*1383 FILLER_1_641
*1384 FILLER_1_647
*1385 FILLER_1_69
*1386 FILLER_1_81
*1387 FILLER_1_93
*1388 FILLER_20_109
*1389 FILLER_20_121
*1390 FILLER_20_133
*1391 FILLER_20_139
*1392 FILLER_20_141
*1393 FILLER_20_15
*1394 FILLER_20_153
*1395 FILLER_20_165
*1396 FILLER_20_177
*1397 FILLER_20_189
*1398 FILLER_20_195
*1399 FILLER_20_197
*1400 FILLER_20_209
*1401 FILLER_20_221
*1402 FILLER_20_233
*1403 FILLER_20_245
*1404 FILLER_20_251
*1405 FILLER_20_253
*1406 FILLER_20_265
*1407 FILLER_20_27
*1408 FILLER_20_277
*1409 FILLER_20_289
*1410 FILLER_20_29
*1411 FILLER_20_3
*1412 FILLER_20_301
*1413 FILLER_20_307
*1414 FILLER_20_309
*1415 FILLER_20_321
*1416 FILLER_20_333
*1417 FILLER_20_345
*1418 FILLER_20_353
*1419 FILLER_20_41
*1420 FILLER_20_53
*1421 FILLER_20_65
*1422 FILLER_20_77
*1423 FILLER_20_83
*1424 FILLER_20_85
*1425 FILLER_20_97
*1426 FILLER_21_105
*1427 FILLER_21_111
*1428 FILLER_21_113
*1429 FILLER_21_125
*1430 FILLER_21_137
*1431 FILLER_21_149
*1432 FILLER_21_15
*1433 FILLER_21_161
*1434 FILLER_21_167
*1435 FILLER_21_169
*1436 FILLER_21_181
*1437 FILLER_21_193
*1438 FILLER_21_205
*1439 FILLER_21_217
*1440 FILLER_21_223
*1441 FILLER_21_225
*1442 FILLER_21_237
*1443 FILLER_21_249
*1444 FILLER_21_261
*1445 FILLER_21_27
*1446 FILLER_21_273
*1447 FILLER_21_279
*1448 FILLER_21_281
*1449 FILLER_21_293
*1450 FILLER_21_3
*1451 FILLER_21_305
*1452 FILLER_21_317
*1453 FILLER_21_329
*1454 FILLER_21_335
*1455 FILLER_21_337
*1456 FILLER_21_349
*1457 FILLER_21_353
*1458 FILLER_21_39
*1459 FILLER_21_51
*1460 FILLER_21_55
*1461 FILLER_21_57
*1462 FILLER_21_69
*1463 FILLER_21_81
*1464 FILLER_21_93
*1465 FILLER_22_109
*1466 FILLER_22_121
*1467 FILLER_22_13
*1468 FILLER_22_133
*1469 FILLER_22_139
*1470 FILLER_22_141
*1471 FILLER_22_153
*1472 FILLER_22_165
*1473 FILLER_22_177
*1474 FILLER_22_189
*1475 FILLER_22_195
*1476 FILLER_22_197
*1477 FILLER_22_209
*1478 FILLER_22_221
*1479 FILLER_22_233
*1480 FILLER_22_245
*1481 FILLER_22_25
*1482 FILLER_22_251
*1483 FILLER_22_253
*1484 FILLER_22_265
*1485 FILLER_22_277
*1486 FILLER_22_289
*1487 FILLER_22_29
*1488 FILLER_22_301
*1489 FILLER_22_307
*1490 FILLER_22_309
*1491 FILLER_22_321
*1492 FILLER_22_333
*1493 FILLER_22_345
*1494 FILLER_22_353
*1495 FILLER_22_41
*1496 FILLER_22_53
*1497 FILLER_22_65
*1498 FILLER_22_77
*1499 FILLER_22_83
*1500 FILLER_22_85
*1501 FILLER_22_97
*1502 FILLER_23_105
*1503 FILLER_23_111
*1504 FILLER_23_113
*1505 FILLER_23_125
*1506 FILLER_23_137
*1507 FILLER_23_149
*1508 FILLER_23_15
*1509 FILLER_23_161
*1510 FILLER_23_167
*1511 FILLER_23_169
*1512 FILLER_23_181
*1513 FILLER_23_193
*1514 FILLER_23_205
*1515 FILLER_23_217
*1516 FILLER_23_223
*1517 FILLER_23_225
*1518 FILLER_23_237
*1519 FILLER_23_249
*1520 FILLER_23_261
*1521 FILLER_23_27
*1522 FILLER_23_273
*1523 FILLER_23_279
*1524 FILLER_23_281
*1525 FILLER_23_293
*1526 FILLER_23_3
*1527 FILLER_23_305
*1528 FILLER_23_317
*1529 FILLER_23_329
*1530 FILLER_23_335
*1531 FILLER_23_337
*1532 FILLER_23_349
*1533 FILLER_23_353
*1534 FILLER_23_39
*1535 FILLER_23_51
*1536 FILLER_23_55
*1537 FILLER_23_57
*1538 FILLER_23_69
*1539 FILLER_23_81
*1540 FILLER_23_93
*1541 FILLER_24_109
*1542 FILLER_24_121
*1543 FILLER_24_133
*1544 FILLER_24_139
*1545 FILLER_24_141
*1546 FILLER_24_15
*1547 FILLER_24_153
*1548 FILLER_24_165
*1549 FILLER_24_177
*1550 FILLER_24_189
*1551 FILLER_24_195
*1552 FILLER_24_197
*1553 FILLER_24_209
*1554 FILLER_24_221
*1555 FILLER_24_233
*1556 FILLER_24_245
*1557 FILLER_24_251
*1558 FILLER_24_253
*1559 FILLER_24_265
*1560 FILLER_24_27
*1561 FILLER_24_277
*1562 FILLER_24_289
*1563 FILLER_24_29
*1564 FILLER_24_3
*1565 FILLER_24_301
*1566 FILLER_24_307
*1567 FILLER_24_309
*1568 FILLER_24_321
*1569 FILLER_24_333
*1570 FILLER_24_345
*1571 FILLER_24_353
*1572 FILLER_24_41
*1573 FILLER_24_53
*1574 FILLER_24_65
*1575 FILLER_24_77
*1576 FILLER_24_83
*1577 FILLER_24_85
*1578 FILLER_24_97
*1579 FILLER_25_105
*1580 FILLER_25_111
*1581 FILLER_25_113
*1582 FILLER_25_125
*1583 FILLER_25_137
*1584 FILLER_25_149