*SPEF "ieee 1481-1999"
*DESIGN "manual_macro_placement_test"
*DATE "11:11:11 Fri 11 11, 1111"
*VENDOR "OpenRCX"
*PROGRAM "Parallel Extraction"
*VERSION "1.0"
*DESIGN_FLOW "NAME_SCOPE LOCAL" "PIN_CAP NONE"
*DIVIDER /
*DELIMITER :
*BUS_DELIMITER []
*T_UNIT 1 NS
*C_UNIT 1 PF
*R_UNIT 1 OHM
*L_UNIT 1 HENRY

*NAME_MAP
*3 clk1
*4 clk2
*5 p1
*6 p2
*7 rst1
*8 rst2
*9 x1[0]
*10 x1[10]
*11 x1[11]
*12 x1[12]
*13 x1[13]
*14 x1[14]
*15 x1[15]
*16 x1[16]
*17 x1[17]
*18 x1[18]
*19 x1[19]
*20 x1[1]
*21 x1[20]
*22 x1[21]
*23 x1[22]
*24 x1[23]
*25 x1[24]
*26 x1[25]
*27 x1[26]
*28 x1[27]
*29 x1[28]
*30 x1[29]
*31 x1[2]
*32 x1[30]
*33 x1[31]
*34 x1[3]
*35 x1[4]
*36 x1[5]
*37 x1[6]
*38 x1[7]
*39 x1[8]
*40 x1[9]
*41 x2[0]
*42 x2[10]
*43 x2[11]
*44 x2[12]
*45 x2[13]
*46 x2[14]
*47 x2[15]
*48 x2[16]
*49 x2[17]
*50 x2[18]
*51 x2[19]
*52 x2[1]
*53 x2[20]
*54 x2[21]
*55 x2[22]
*56 x2[23]
*57 x2[24]
*58 x2[25]
*59 x2[26]
*60 x2[27]
*61 x2[28]
*62 x2[29]
*63 x2[2]
*64 x2[30]
*65 x2[31]
*66 x2[3]
*67 x2[4]
*68 x2[5]
*69 x2[6]
*70 x2[7]
*71 x2[8]
*72 x2[9]
*73 y1
*74 y2
*75 net1
*76 net10
*77 net11
*78 net12
*79 net13
*80 net14
*81 net15
*82 net16
*83 net17
*84 net18
*85 net19
*86 net2
*87 net20
*88 net21
*89 net22
*90 net23
*91 net24
*92 net25
*93 net26
*94 net27
*95 net28
*96 net29
*97 net3
*98 net30
*99 net31
*100 net32
*101 net33
*102 net34
*103 net35
*104 net36
*105 net37
*106 net38
*107 net39
*108 net4
*109 net40
*110 net41
*111 net42
*112 net43
*113 net44
*114 net45
*115 net46
*116 net47
*117 net48
*118 net49
*119 net5
*120 net50
*121 net51
*122 net52
*123 net53
*124 net54
*125 net55
*126 net56
*127 net57
*128 net58
*129 net59
*130 net6
*131 net60
*132 net61
*133 net62
*134 net63
*135 net64
*136 net65
*137 net66
*138 net67
*139 net68
*140 net69
*141 net7
*142 net70
*143 net71
*144 net8
*145 net9
*146 FILLER_0_1005
*147 FILLER_0_1009
*148 FILLER_0_1017
*149 FILLER_0_1029
*150 FILLER_0_1035
*151 FILLER_0_1037
*152 FILLER_0_1049
*153 FILLER_0_1061
*154 FILLER_0_1065
*155 FILLER_0_1077
*156 FILLER_0_1087
*157 FILLER_0_109
*158 FILLER_0_1091
*159 FILLER_0_1093
*160 FILLER_0_1105
*161 FILLER_0_1117
*162 FILLER_0_1121
*163 FILLER_0_113
*164 FILLER_0_1133
*165 FILLER_0_1145
*166 FILLER_0_1155
*167 FILLER_0_1167
*168 FILLER_0_1175
*169 FILLER_0_1177
*170 FILLER_0_1189
*171 FILLER_0_1201
*172 FILLER_0_1205
*173 FILLER_0_121
*174 FILLER_0_1213
*175 FILLER_0_1220
*176 FILLER_0_126
*177 FILLER_0_138
*178 FILLER_0_141
*179 FILLER_0_153
*180 FILLER_0_165
*181 FILLER_0_169
*182 FILLER_0_181
*183 FILLER_0_19
*184 FILLER_0_193
*185 FILLER_0_207
*186 FILLER_0_219
*187 FILLER_0_223
*188 FILLER_0_225
*189 FILLER_0_237
*190 FILLER_0_249
*191 FILLER_0_253
*192 FILLER_0_261
*193 FILLER_0_265
*194 FILLER_0_27
*195 FILLER_0_277
*196 FILLER_0_281
*197 FILLER_0_29
*198 FILLER_0_293
*199 FILLER_0_305
*200 FILLER_0_309
*201 FILLER_0_321
*202 FILLER_0_328
*203 FILLER_0_337
*204 FILLER_0_349
*205 FILLER_0_361
*206 FILLER_0_365
*207 FILLER_0_377
*208 FILLER_0_389
*209 FILLER_0_393
*210 FILLER_0_398
*211 FILLER_0_41
*212 FILLER_0_410
*213 FILLER_0_418
*214 FILLER_0_421
*215 FILLER_0_433
*216 FILLER_0_445
*217 FILLER_0_449
*218 FILLER_0_461
*219 FILLER_0_469
*220 FILLER_0_475
*221 FILLER_0_477
*222 FILLER_0_489
*223 FILLER_0_501
*224 FILLER_0_505
*225 FILLER_0_517
*226 FILLER_0_529
*227 FILLER_0_53
*228 FILLER_0_533
*229 FILLER_0_539
*230 FILLER_0_551
*231 FILLER_0_559
*232 FILLER_0_561
*233 FILLER_0_573
*234 FILLER_0_585
*235 FILLER_0_589
*236 FILLER_0_597
*237 FILLER_0_602
*238 FILLER_0_614
*239 FILLER_0_617
*240 FILLER_0_629
*241 FILLER_0_63
*242 FILLER_0_641
*243 FILLER_0_645
*244 FILLER_0_657
*245 FILLER_0_665
*246 FILLER_0_673
*247 FILLER_0_685
*248 FILLER_0_697
*249 FILLER_0_7
*250 FILLER_0_701
*251 FILLER_0_713
*252 FILLER_0_725
*253 FILLER_0_729
*254 FILLER_0_737
*255 FILLER_0_744
*256 FILLER_0_75
*257 FILLER_0_757
*258 FILLER_0_769
*259 FILLER_0_781
*260 FILLER_0_785
*261 FILLER_0_797
*262 FILLER_0_805
*263 FILLER_0_813
*264 FILLER_0_825
*265 FILLER_0_83
*266 FILLER_0_837
*267 FILLER_0_841
*268 FILLER_0_85
*269 FILLER_0_853
*270 FILLER_0_865
*271 FILLER_0_869
*272 FILLER_0_877
*273 FILLER_0_889
*274 FILLER_0_895
*275 FILLER_0_897
*276 FILLER_0_909
*277 FILLER_0_921
*278 FILLER_0_925
*279 FILLER_0_937
*280 FILLER_0_947
*281 FILLER_0_951
*282 FILLER_0_953
*283 FILLER_0_965
*284 FILLER_0_97
*285 FILLER_0_977
*286 FILLER_0_981
*287 FILLER_0_993
*288 FILLER_100_1005
*289 FILLER_100_1017
*290 FILLER_100_1029
*291 FILLER_100_1035
*292 FILLER_100_1037
*293 FILLER_100_1049
*294 FILLER_100_1061
*295 FILLER_100_1073
*296 FILLER_100_1085
*297 FILLER_100_109
*298 FILLER_100_1091
*299 FILLER_100_1093
*300 FILLER_100_1105
*301 FILLER_100_1117
*302 FILLER_100_1129
*303 FILLER_100_1141
*304 FILLER_100_1147
*305 FILLER_100_1149
*306 FILLER_100_1161
*307 FILLER_100_1173
*308 FILLER_100_1185
*309 FILLER_100_1197
*310 FILLER_100_1203
*311 FILLER_100_1205
*312 FILLER_100_121
*313 FILLER_100_1217
*314 FILLER_100_133
*315 FILLER_100_139
*316 FILLER_100_141
*317 FILLER_100_15
*318 FILLER_100_153
*319 FILLER_100_165
*320 FILLER_100_177
*321 FILLER_100_189
*322 FILLER_100_195
*323 FILLER_100_197
*324 FILLER_100_209
*325 FILLER_100_221
*326 FILLER_100_233
*327 FILLER_100_245
*328 FILLER_100_251
*329 FILLER_100_253
*330 FILLER_100_265
*331 FILLER_100_27
*332 FILLER_100_277
*333 FILLER_100_289
*334 FILLER_100_29
*335 FILLER_100_3
*336 FILLER_100_301
*337 FILLER_100_307
*338 FILLER_100_309
*339 FILLER_100_321
*340 FILLER_100_333
*341 FILLER_100_345
*342 FILLER_100_357
*343 FILLER_100_363
*344 FILLER_100_365
*345 FILLER_100_377
*346 FILLER_100_389
*347 FILLER_100_401
*348 FILLER_100_41
*349 FILLER_100_413
*350 FILLER_100_419
*351 FILLER_100_421
*352 FILLER_100_433
*353 FILLER_100_445
*354 FILLER_100_457
*355 FILLER_100_469
*356 FILLER_100_475
*357 FILLER_100_477
*358 FILLER_100_489
*359 FILLER_100_501
*360 FILLER_100_513
*361 FILLER_100_525
*362 FILLER_100_53
*363 FILLER_100_531
*364 FILLER_100_533
*365 FILLER_100_545
*366 FILLER_100_557
*367 FILLER_100_569
*368 FILLER_100_581
*369 FILLER_100_587
*370 FILLER_100_589
*371 FILLER_100_601
*372 FILLER_100_613
*373 FILLER_100_625
*374 FILLER_100_637
*375 FILLER_100_643
*376 FILLER_100_645
*377 FILLER_100_65
*378 FILLER_100_657
*379 FILLER_100_669
*380 FILLER_100_681
*381 FILLER_100_693
*382 FILLER_100_699
*383 FILLER_100_701
*384 FILLER_100_713
*385 FILLER_100_725
*386 FILLER_100_737
*387 FILLER_100_749
*388 FILLER_100_755
*389 FILLER_100_757
*390 FILLER_100_769
*391 FILLER_100_77
*392 FILLER_100_781
*393 FILLER_100_793
*394 FILLER_100_805
*395 FILLER_100_811
*396 FILLER_100_813
*397 FILLER_100_825
*398 FILLER_100_83
*399 FILLER_100_837
*400 FILLER_100_849
*401 FILLER_100_85
*402 FILLER_100_861
*403 FILLER_100_867
*404 FILLER_100_869
*405 FILLER_100_881
*406 FILLER_100_893
*407 FILLER_100_905
*408 FILLER_100_917
*409 FILLER_100_923
*410 FILLER_100_925
*411 FILLER_100_937
*412 FILLER_100_949
*413 FILLER_100_961
*414 FILLER_100_97
*415 FILLER_100_973
*416 FILLER_100_979
*417 FILLER_100_981
*418 FILLER_100_993
*419 FILLER_101_1001
*420 FILLER_101_1007
*421 FILLER_101_1009
*422 FILLER_101_1021
*423 FILLER_101_1033
*424 FILLER_101_1045
*425 FILLER_101_105
*426 FILLER_101_1057
*427 FILLER_101_1063
*428 FILLER_101_1065
*429 FILLER_101_1077
*430 FILLER_101_1089
*431 FILLER_101_1101
*432 FILLER_101_111
*433 FILLER_101_1113
*434 FILLER_101_1119
*435 FILLER_101_1121
*436 FILLER_101_113
*437 FILLER_101_1133
*438 FILLER_101_1145
*439 FILLER_101_1157
*440 FILLER_101_1169
*441 FILLER_101_1175
*442 FILLER_101_1177
*443 FILLER_101_1189
*444 FILLER_101_1201
*445 FILLER_101_1213
*446 FILLER_101_125
*447 FILLER_101_137
*448 FILLER_101_149
*449 FILLER_101_15
*450 FILLER_101_161
*451 FILLER_101_167
*452 FILLER_101_169
*453 FILLER_101_181
*454 FILLER_101_193
*455 FILLER_101_205
*456 FILLER_101_217
*457 FILLER_101_223
*458 FILLER_101_225
*459 FILLER_101_237
*460 FILLER_101_249
*461 FILLER_101_261
*462 FILLER_101_27
*463 FILLER_101_273
*464 FILLER_101_279
*465 FILLER_101_281
*466 FILLER_101_293
*467 FILLER_101_3
*468 FILLER_101_305
*469 FILLER_101_317
*470 FILLER_101_329
*471 FILLER_101_335
*472 FILLER_101_337
*473 FILLER_101_349
*474 FILLER_101_361
*475 FILLER_101_373
*476 FILLER_101_385
*477 FILLER_101_39
*478 FILLER_101_391
*479 FILLER_101_393
*480 FILLER_101_405
*481 FILLER_101_417
*482 FILLER_101_429
*483 FILLER_101_441
*484 FILLER_101_447
*485 FILLER_101_449
*486 FILLER_101_461
*487 FILLER_101_473
*488 FILLER_101_485
*489 FILLER_101_497
*490 FILLER_101_503
*491 FILLER_101_505
*492 FILLER_101_51
*493 FILLER_101_517
*494 FILLER_101_529
*495 FILLER_101_541
*496 FILLER_101_55
*497 FILLER_101_553
*498 FILLER_101_559
*499 FILLER_101_561
*500 FILLER_101_57
*501 FILLER_101_573
*502 FILLER_101_585
*503 FILLER_101_597
*504 FILLER_101_609
*505 FILLER_101_615
*506 FILLER_101_617
*507 FILLER_101_629
*508 FILLER_101_641
*509 FILLER_101_653
*510 FILLER_101_665
*511 FILLER_101_671
*512 FILLER_101_673
*513 FILLER_101_685
*514 FILLER_101_69
*515 FILLER_101_697
*516 FILLER_101_709
*517 FILLER_101_721
*518 FILLER_101_727
*519 FILLER_101_729
*520 FILLER_101_741
*521 FILLER_101_753
*522 FILLER_101_765
*523 FILLER_101_777
*524 FILLER_101_783
*525 FILLER_101_785
*526 FILLER_101_797
*527 FILLER_101_809
*528 FILLER_101_81
*529 FILLER_101_821
*530 FILLER_101_833
*531 FILLER_101_839
*532 FILLER_101_841
*533 FILLER_101_853
*534 FILLER_101_865
*535 FILLER_101_877
*536 FILLER_101_889
*537 FILLER_101_895
*538 FILLER_101_897
*539 FILLER_101_909
*540 FILLER_101_921
*541 FILLER_101_93
*542 FILLER_101_933
*543 FILLER_101_945
*544 FILLER_101_951
*545 FILLER_101_953
*546 FILLER_101_965
*547 FILLER_101_977
*548 FILLER_101_989
*549 FILLER_102_1005
*550 FILLER_102_1017
*551 FILLER_102_1029
*552 FILLER_102_1035
*553 FILLER_102_1037
*554 FILLER_102_1049
*555 FILLER_102_1061
*556 FILLER_102_1073
*557 FILLER_102_1085
*558 FILLER_102_109
*559 FILLER_102_1091
*560 FILLER_102_1093
*561 FILLER_102_1105
*562 FILLER_102_1117
*563 FILLER_102_1129
*564 FILLER_102_1141
*565 FILLER_102_1147
*566 FILLER_102_1149
*567 FILLER_102_1161
*568 FILLER_102_1173
*569 FILLER_102_1185
*570 FILLER_102_1197
*571 FILLER_102_1203
*572 FILLER_102_1205
*573 FILLER_102_121
*574 FILLER_102_1217
*575 FILLER_102_133
*576 FILLER_102_139
*577 FILLER_102_141
*578 FILLER_102_15
*579 FILLER_102_153
*580 FILLER_102_165
*581 FILLER_102_177
*582 FILLER_102_189
*583 FILLER_102_195
*584 FILLER_102_197
*585 FILLER_102_209
*586 FILLER_102_221
*587 FILLER_102_233
*588 FILLER_102_245
*589 FILLER_102_251
*590 FILLER_102_253
*591 FILLER_102_265
*592 FILLER_102_27
*593 FILLER_102_277
*594 FILLER_102_289
*595 FILLER_102_29
*596 FILLER_102_3
*597 FILLER_102_301
*598 FILLER_102_307
*599 FILLER_102_309
*600 FILLER_102_321
*601 FILLER_102_333
*602 FILLER_102_345
*603 FILLER_102_357
*604 FILLER_102_363
*605 FILLER_102_365
*606 FILLER_102_377
*607 FILLER_102_389
*608 FILLER_102_401
*609 FILLER_102_41
*610 FILLER_102_413
*611 FILLER_102_419
*612 FILLER_102_421
*613 FILLER_102_433
*614 FILLER_102_445
*615 FILLER_102_457
*616 FILLER_102_469
*617 FILLER_102_475
*618 FILLER_102_477
*619 FILLER_102_489
*620 FILLER_102_501
*621 FILLER_102_513
*622 FILLER_102_525
*623 FILLER_102_53
*624 FILLER_102_531
*625 FILLER_102_533
*626 FILLER_102_545
*627 FILLER_102_557
*628 FILLER_102_569
*629 FILLER_102_581
*630 FILLER_102_587
*631 FILLER_102_589
*632 FILLER_102_601
*633 FILLER_102_613
*634 FILLER_102_625
*635 FILLER_102_637
*636 FILLER_102_643
*637 FILLER_102_645
*638 FILLER_102_65
*639 FILLER_102_657
*640 FILLER_102_669
*641 FILLER_102_681
*642 FILLER_102_693
*643 FILLER_102_699
*644 FILLER_102_701
*645 FILLER_102_713
*646 FILLER_102_725
*647 FILLER_102_737
*648 FILLER_102_749
*649 FILLER_102_755
*650 FILLER_102_757
*651 FILLER_102_769
*652 FILLER_102_77
*653 FILLER_102_781
*654 FILLER_102_793
*655 FILLER_102_805
*656 FILLER_102_811
*657 FILLER_102_813
*658 FILLER_102_825
*659 FILLER_102_83
*660 FILLER_102_837
*661 FILLER_102_849
*662 FILLER_102_85
*663 FILLER_102_861
*664 FILLER_102_867
*665 FILLER_102_869
*666 FILLER_102_881
*667 FILLER_102_893
*668 FILLER_102_905
*669 FILLER_102_917
*670 FILLER_102_923
*671 FILLER_102_925
*672 FILLER_102_937
*673 FILLER_102_949
*674 FILLER_102_961
*675 FILLER_102_97
*676 FILLER_102_973
*677 FILLER_102_979
*678 FILLER_102_981
*679 FILLER_102_993
*680 FILLER_103_1001
*681 FILLER_103_1007
*682 FILLER_103_1009
*683 FILLER_103_1021
*684 FILLER_103_1033
*685 FILLER_103_1045
*686 FILLER_103_105
*687 FILLER_103_1057
*688 FILLER_103_1063
*689 FILLER_103_1065
*690 FILLER_103_1077
*691 FILLER_103_1089
*692 FILLER_103_1101
*693 FILLER_103_111
*694 FILLER_103_1113
*695 FILLER_103_1119
*696 FILLER_103_1121
*697 FILLER_103_113
*698 FILLER_103_1133
*699 FILLER_103_1145
*700 FILLER_103_1157
*701 FILLER_103_1169
*702 FILLER_103_1175
*703 FILLER_103_1177
*704 FILLER_103_1189
*705 FILLER_103_1201
*706 FILLER_103_1213
*707 FILLER_103_125
*708 FILLER_103_137
*709 FILLER_103_149
*710 FILLER_103_15
*711 FILLER_103_161
*712 FILLER_103_167
*713 FILLER_103_169
*714 FILLER_103_181
*715 FILLER_103_193
*716 FILLER_103_205
*717 FILLER_103_217
*718 FILLER_103_223
*719 FILLER_103_225
*720 FILLER_103_237
*721 FILLER_103_249
*722 FILLER_103_261
*723 FILLER_103_27
*724 FILLER_103_273
*725 FILLER_103_279
*726 FILLER_103_281
*727 FILLER_103_293
*728 FILLER_103_3
*729 FILLER_103_305
*730 FILLER_103_317
*731 FILLER_103_329
*732 FILLER_103_335
*733 FILLER_103_337
*734 FILLER_103_349
*735 FILLER_103_361
*736 FILLER_103_373
*737 FILLER_103_385
*738 FILLER_103_39
*739 FILLER_103_391
*740 FILLER_103_393
*741 FILLER_103_405
*742 FILLER_103_417
*743 FILLER_103_429
*744 FILLER_103_441
*745 FILLER_103_447
*746 FILLER_103_449
*747 FILLER_103_461
*748 FILLER_103_473
*749 FILLER_103_485
*750 FILLER_103_497
*751 FILLER_103_503
*752 FILLER_103_505
*753 FILLER_103_51
*754 FILLER_103_517
*755 FILLER_103_529
*756 FILLER_103_541
*757 FILLER_103_55
*758 FILLER_103_553
*759 FILLER_103_559
*760 FILLER_103_561
*761 FILLER_103_57
*762 FILLER_103_573
*763 FILLER_103_585
*764 FILLER_103_597
*765 FILLER_103_609
*766 FILLER_103_615
*767 FILLER_103_617
*768 FILLER_103_629
*769 FILLER_103_641
*770 FILLER_103_653
*771 FILLER_103_665
*772 FILLER_103_671
*773 FILLER_103_673
*774 FILLER_103_685
*775 FILLER_103_69
*776 FILLER_103_697
*777 FILLER_103_709
*778 FILLER_103_721
*779 FILLER_103_727
*780 FILLER_103_729
*781 FILLER_103_741
*782 FILLER_103_753
*783 FILLER_103_765
*784 FILLER_103_777
*785 FILLER_103_783
*786 FILLER_103_785
*787 FILLER_103_797
*788 FILLER_103_809
*789 FILLER_103_81
*790 FILLER_103_821
*791 FILLER_103_833
*792 FILLER_103_839
*793 FILLER_103_841
*794 FILLER_103_853
*795 FILLER_103_865
*796 FILLER_103_877
*797 FILLER_103_889
*798 FILLER_103_895
*799 FILLER_103_897
*800 FILLER_103_909
*801 FILLER_103_921
*802 FILLER_103_93
*803 FILLER_103_933
*804 FILLER_103_945
*805 FILLER_103_951
*806 FILLER_103_953
*807 FILLER_103_965
*808 FILLER_103_977
*809 FILLER_103_989
*810 FILLER_104_1005
*811 FILLER_104_1017
*812 FILLER_104_1029
*813 FILLER_104_1035
*814 FILLER_104_1037
*815 FILLER_104_1049
*816 FILLER_104_1061
*817 FILLER_104_1073
*818 FILLER_104_1085
*819 FILLER_104_109
*820 FILLER_104_1091
*821 FILLER_104_1093
*822 FILLER_104_1105
*823 FILLER_104_1117
*824 FILLER_104_1129
*825 FILLER_104_1141
*826 FILLER_104_1147
*827 FILLER_104_1149
*828 FILLER_104_1161
*829 FILLER_104_1173
*830 FILLER_104_1185
*831 FILLER_104_1197
*832 FILLER_104_1203
*833 FILLER_104_1205
*834 FILLER_104_121
*835 FILLER_104_1217
*836 FILLER_104_133
*837 FILLER_104_139
*838 FILLER_104_141
*839 FILLER_104_15
*840 FILLER_104_153
*841 FILLER_104_165
*842 FILLER_104_177
*843 FILLER_104_189
*844 FILLER_104_195
*845 FILLER_104_197
*846 FILLER_104_209
*847 FILLER_104_221
*848 FILLER_104_233
*849 FILLER_104_245
*850 FILLER_104_251
*851 FILLER_104_253
*852 FILLER_104_265
*853 FILLER_104_27
*854 FILLER_104_277
*855 FILLER_104_289
*856 FILLER_104_29
*857 FILLER_104_3
*858 FILLER_104_301
*859 FILLER_104_307
*860 FILLER_104_309
*861 FILLER_104_321
*862 FILLER_104_333
*863 FILLER_104_345
*864 FILLER_104_357
*865 FILLER_104_363
*866 FILLER_104_365
*867 FILLER_104_377
*868 FILLER_104_389
*869 FILLER_104_401
*870 FILLER_104_41
*871 FILLER_104_413
*872 FILLER_104_419
*873 FILLER_104_421
*874 FILLER_104_433
*875 FILLER_104_445
*876 FILLER_104_457
*877 FILLER_104_469
*878 FILLER_104_475
*879 FILLER_104_477
*880 FILLER_104_489
*881 FILLER_104_501
*882 FILLER_104_513
*883 FILLER_104_525
*884 FILLER_104_53
*885 FILLER_104_531
*886 FILLER_104_533
*887 FILLER_104_545
*888 FILLER_104_557
*889 FILLER_104_569
*890 FILLER_104_581
*891 FILLER_104_587
*892 FILLER_104_589
*893 FILLER_104_601
*894 FILLER_104_613
*895 FILLER_104_625
*896 FILLER_104_637
*897 FILLER_104_643
*898 FILLER_104_645
*899 FILLER_104_65
*900 FILLER_104_657
*901 FILLER_104_669
*902 FILLER_104_681
*903 FILLER_104_693
*904 FILLER_104_699
*905 FILLER_104_701
*906 FILLER_104_713
*907 FILLER_104_725
*908 FILLER_104_737
*909 FILLER_104_749
*910 FILLER_104_755
*911 FILLER_104_757
*912 FILLER_104_769
*913 FILLER_104_77
*914 FILLER_104_781
*915 FILLER_104_793
*916 FILLER_104_805
*917 FILLER_104_811
*918 FILLER_104_813
*919 FILLER_104_825
*920 FILLER_104_83
*921 FILLER_104_837
*922 FILLER_104_849
*923 FILLER_104_85
*924 FILLER_104_861
*925 FILLER_104_867
*926 FILLER_104_869
*927 FILLER_104_881
*928 FILLER_104_893
*929 FILLER_104_905
*930 FILLER_104_917
*931 FILLER_104_923
*932 FILLER_104_925
*933 FILLER_104_937
*934 FILLER_104_949
*935 FILLER_104_961
*936 FILLER_104_97
*937 FILLER_104_973
*938 FILLER_104_979
*939 FILLER_104_981
*940 FILLER_104_993
*941 FILLER_105_1001
*942 FILLER_105_1007
*943 FILLER_105_1009
*944 FILLER_105_1021
*945 FILLER_105_1033
*946 FILLER_105_1045
*947 FILLER_105_105
*948 FILLER_105_1057
*949 FILLER_105_1063
*950 FILLER_105_1065
*951 FILLER_105_1077
*952 FILLER_105_1089
*953 FILLER_105_1101
*954 FILLER_105_111
*955 FILLER_105_1113
*956 FILLER_105_1119
*957 FILLER_105_1121
*958 FILLER_105_113
*959 FILLER_105_1133
*960 FILLER_105_1145
*961 FILLER_105_1157
*962 FILLER_105_1169
*963 FILLER_105_1175
*964 FILLER_105_1177
*965 FILLER_105_1189
*966 FILLER_105_1201
*967 FILLER_105_1213
*968 FILLER_105_125
*969 FILLER_105_137
*970 FILLER_105_149
*971 FILLER_105_161
*972 FILLER_105_167
*973 FILLER_105_169
*974 FILLER_105_181
*975 FILLER_105_193
*976 FILLER_105_205
*977 FILLER_105_21
*978 FILLER_105_217
*979 FILLER_105_223
*980 FILLER_105_225
*981 FILLER_105_237
*982 FILLER_105_249
*983 FILLER_105_261
*984 FILLER_105_273
*985 FILLER_105_279
*986 FILLER_105_281
*987 FILLER_105_293
*988 FILLER_105_305
*989 FILLER_105_317
*990 FILLER_105_329
*991 FILLER_105_33
*992 FILLER_105_335
*993 FILLER_105_337
*994 FILLER_105_349
*995 FILLER_105_361
*996 FILLER_105_373
*997 FILLER_105_385
*998 FILLER_105_391
*999 FILLER_105_393
*1000 FILLER_105_405
*1001 FILLER_105_417
*1002 FILLER_105_429
*1003 FILLER_105_441
*1004 FILLER_105_447
*1005 FILLER_105_449
*1006 FILLER_105_45
*1007 FILLER_105_461
*1008 FILLER_105_473
*1009 FILLER_105_485
*1010 FILLER_105_497
*1011 FILLER_105_503
*1012 FILLER_105_505
*1013 FILLER_105_517
*1014 FILLER_105_529
*1015 FILLER_105_53
*1016 FILLER_105_541
*1017 FILLER_105_553
*1018 FILLER_105_559
*1019 FILLER_105_561
*1020 FILLER_105_57
*1021 FILLER_105_573
*1022 FILLER_105_585
*1023 FILLER_105_597
*1024 FILLER_105_609
*1025 FILLER_105_615
*1026 FILLER_105_617
*1027 FILLER_105_629
*1028 FILLER_105_641
*1029 FILLER_105_653
*1030 FILLER_105_665
*1031 FILLER_105_671
*1032 FILLER_105_673
*1033 FILLER_105_685
*1034 FILLER_105_69
*1035 FILLER_105_697
*1036 FILLER_105_709
*1037 FILLER_105_721
*1038 FILLER_105_727
*1039 FILLER_105_729
*1040 FILLER_105_741
*1041 FILLER_105_753
*1042 FILLER_105_765
*1043 FILLER_105_777
*1044 FILLER_105_783
*1045 FILLER_105_785
*1046 FILLER_105_797
*1047 FILLER_105_809
*1048 FILLER_105_81
*1049 FILLER_105_821
*1050 FILLER_105_833
*1051 FILLER_105_839
*1052 FILLER_105_841
*1053 FILLER_105_853
*1054 FILLER_105_865
*1055 FILLER_105_877
*1056 FILLER_105_889
*1057 FILLER_105_895
*1058 FILLER_105_897
*1059 FILLER_105_9
*1060 FILLER_105_909
*1061 FILLER_105_921
*1062 FILLER_105_93
*1063 FILLER_105_933
*1064 FILLER_105_945
*1065 FILLER_105_951
*1066 FILLER_105_953
*1067 FILLER_105_965
*1068 FILLER_105_977
*1069 FILLER_105_989
*1070 FILLER_106_1005
*1071 FILLER_106_1017
*1072 FILLER_106_1029
*1073 FILLER_106_1035
*1074 FILLER_106_1037
*1075 FILLER_106_1049
*1076 FILLER_106_1061
*1077 FILLER_106_1073
*1078 FILLER_106_1085
*1079 FILLER_106_109
*1080 FILLER_106_1091
*1081 FILLER_106_1093
*1082 FILLER_106_1105
*1083 FILLER_106_1117
*1084 FILLER_106_1129
*1085 FILLER_106_1141
*1086 FILLER_106_1147
*1087 FILLER_106_1149
*1088 FILLER_106_1161
*1089 FILLER_106_1173
*1090 FILLER_106_1185
*1091 FILLER_106_1197
*1092 FILLER_106_1203
*1093 FILLER_106_1205
*1094 FILLER_106_121
*1095 FILLER_106_1217
*1096 FILLER_106_133
*1097 FILLER_106_139
*1098 FILLER_106_141
*1099 FILLER_106_15
*1100 FILLER_106_153
*1101 FILLER_106_165
*1102 FILLER_106_177
*1103 FILLER_106_189
*1104 FILLER_106_195
*1105 FILLER_106_197
*1106 FILLER_106_209
*1107 FILLER_106_221
*1108 FILLER_106_233
*1109 FILLER_106_245
*1110 FILLER_106_251
*1111 FILLER_106_253
*1112 FILLER_106_265
*1113 FILLER_106_27
*1114 FILLER_106_277
*1115 FILLER_106_289
*1116 FILLER_106_29
*1117 FILLER_106_3
*1118 FILLER_106_301
*1119 FILLER_106_307
*1120 FILLER_106_309
*1121 FILLER_106_321
*1122 FILLER_106_333
*1123 FILLER_106_345
*1124 FILLER_106_357
*1125 FILLER_106_363
*1126 FILLER_106_365
*1127 FILLER_106_377
*1128 FILLER_106_389
*1129 FILLER_106_401
*1130 FILLER_106_41
*1131 FILLER_106_413
*1132 FILLER_106_419
*1133 FILLER_106_421
*1134 FILLER_106_433
*1135 FILLER_106_445
*1136 FILLER_106_457
*1137 FILLER_106_469
*1138 FILLER_106_475
*1139 FILLER_106_477
*1140 FILLER_106_489
*1141 FILLER_106_501
*1142 FILLER_106_513
*1143 FILLER_106_525
*1144 FILLER_106_53
*1145 FILLER_106_531
*1146 FILLER_106_533
*1147 FILLER_106_545
*1148 FILLER_106_557
*1149 FILLER_106_569
*1150 FILLER_106_581
*1151 FILLER_106_587
*1152 FILLER_106_589
*1153 FILLER_106_601
*1154 FILLER_106_613
*1155 FILLER_106_625
*1156 FILLER_106_637
*1157 FILLER_106_643
*1158 FILLER_106_645
*1159 FILLER_106_65
*1160 FILLER_106_657
*1161 FILLER_106_669
*1162 FILLER_106_681
*1163 FILLER_106_693
*1164 FILLER_106_699
*1165 FILLER_106_701
*1166 FILLER_106_713
*1167 FILLER_106_725
*1168 FILLER_106_737
*1169 FILLER_106_749
*1170 FILLER_106_755
*1171 FILLER_106_757
*1172 FILLER_106_769
*1173 FILLER_106_77
*1174 FILLER_106_781
*1175 FILLER_106_793
*1176 FILLER_106_805
*1177 FILLER_106_811
*1178 FILLER_106_813
*1179 FILLER_106_825
*1180 FILLER_106_83
*1181 FILLER_106_837
*1182 FILLER_106_849
*1183 FILLER_106_85
*1184 FILLER_106_861
*1185 FILLER_106_867
*1186 FILLER_106_869
*1187 FILLER_106_881
*1188 FILLER_106_893
*1189 FILLER_106_905
*1190 FILLER_106_917
*1191 FILLER_106_923
*1192 FILLER_106_925
*1193 FILLER_106_937
*1194 FILLER_106_949
*1195 FILLER_106_961
*1196 FILLER_106_97
*1197 FILLER_106_973
*1198 FILLER_106_979
*1199 FILLER_106_981
*1200 FILLER_106_993
*1201 FILLER_107_1001
*1202 FILLER_107_1007
*1203 FILLER_107_1009
*1204 FILLER_107_1021
*1205 FILLER_107_1033
*1206 FILLER_107_1045
*1207 FILLER_107_105
*1208 FILLER_107_1057
*1209 FILLER_107_1063
*1210 FILLER_107_1065
*1211 FILLER_107_1077
*1212 FILLER_107_1089
*1213 FILLER_107_1101
*1214 FILLER_107_111
*1215 FILLER_107_1113
*1216 FILLER_107_1119
*1217 FILLER_107_1121
*1218 FILLER_107_113
*1219 FILLER_107_1133
*1220 FILLER_107_1145
*1221 FILLER_107_1157
*1222 FILLER_107_1169
*1223 FILLER_107_1175
*1224 FILLER_107_1177
*1225 FILLER_107_1189
*1226 FILLER_107_1201
*1227 FILLER_107_1213
*1228 FILLER_107_125
*1229 FILLER_107_137
*1230 FILLER_107_149
*1231 FILLER_107_15
*1232 FILLER_107_161
*1233 FILLER_107_167
*1234 FILLER_107_169
*1235 FILLER_107_181
*1236 FILLER_107_193
*1237 FILLER_107_205
*1238 FILLER_107_217
*1239 FILLER_107_223
*1240 FILLER_107_225
*1241 FILLER_107_237
*1242 FILLER_107_249
*1243 FILLER_107_261
*1244 FILLER_107_27
*1245 FILLER_107_273
*1246 FILLER_107_279
*1247 FILLER_107_281
*1248 FILLER_107_293
*1249 FILLER_107_3
*1250 FILLER_107_305
*1251 FILLER_107_317
*1252 FILLER_107_329
*1253 FILLER_107_335
*1254 FILLER_107_337
*1255 FILLER_107_349
*1256 FILLER_107_361
*1257 FILLER_107_373
*1258 FILLER_107_385
*1259 FILLER_107_39
*1260 FILLER_107_391
*1261 FILLER_107_393
*1262 FILLER_107_405
*1263 FILLER_107_417
*1264 FILLER_107_429
*1265 FILLER_107_441
*1266 FILLER_107_447
*1267 FILLER_107_449
*1268 FILLER_107_461
*1269 FILLER_107_473
*1270 FILLER_107_485
*1271 FILLER_107_497
*1272 FILLER_107_503
*1273 FILLER_107_505
*1274 FILLER_107_51
*1275 FILLER_107_517
*1276 FILLER_107_529
*1277 FILLER_107_541
*1278 FILLER_107_55
*1279 FILLER_107_553
*1280 FILLER_107_559
*1281 FILLER_107_561
*1282 FILLER_107_57
*1283 FILLER_107_573
*1284 FILLER_107_585
*1285 FILLER_107_597
*1286 FILLER_107_609
*1287 FILLER_107_615
*1288 FILLER_107_617
*1289 FILLER_107_629
*1290 FILLER_107_641
*1291 FILLER_107_653
*1292 FILLER_107_665
*1293 FILLER_107_671
*1294 FILLER_107_673
*1295 FILLER_107_685
*1296 FILLER_107_69
*1297 FILLER_107_697
*1298 FILLER_107_709
*1299 FILLER_107_721
*1300 FILLER_107_727
*1301 FILLER_107_729
*1302 FILLER_107_741
*1303 FILLER_107_753
*1304 FILLER_107_765
*1305 FILLER_107_777
*1306 FILLER_107_783
*1307 FILLER_107_785
*1308 FILLER_107_797
*1309 FILLER_107_809
*1310 FILLER_107_81
*1311 FILLER_107_821
*1312 FILLER_107_833
*1313 FILLER_107_839
*1314 FILLER_107_841
*1315 FILLER_107_853
*1316 FILLER_107_865
*1317 FILLER_107_877
*1318 FILLER_107_889
*1319 FILLER_107_895
*1320 FILLER_107_897
*1321 FILLER_107_909
*1322 FILLER_107_921
*1323 FILLER_107_93
*1324 FILLER_107_933
*1325 FILLER_107_945
*1326 FILLER_107_951
*1327 FILLER_107_953
*1328 FILLER_107_965
*1329 FILLER_107_977
*1330 FILLER_107_989
*1331 FILLER_108_1005
*1332 FILLER_108_1017
*1333 FILLER_108_1029
*1334 FILLER_108_1035
*1335 FILLER_108_1037
*1336 FILLER_108_1049
*1337 FILLER_108_1061
*1338 FILLER_108_1073
*1339 FILLER_108_1085
*1340 FILLER_108_109
*1341 FILLER_108_1091
*1342 FILLER_108_1093
*1343 FILLER_108_1105
*1344 FILLER_108_1117
*1345 FILLER_108_1129
*1346 FILLER_108_1141
*1347 FILLER_108_1147
*1348 FILLER_108_1149
*1349 FILLER_108_1161
*1350 FILLER_108_1173
*1351 FILLER_108_1185
*1352 FILLER_108_1197
*1353 FILLER_108_1203
*1354 FILLER_108_1205
*1355 FILLER_108_121
*1356 FILLER_108_1217
*1357 FILLER_108_133
*1358 FILLER_108_139
*1359 FILLER_108_141
*1360 FILLER_108_15
*1361 FILLER_108_153
*1362 FILLER_108_165
*1363 FILLER_108_177
*1364 FILLER_108_189
*1365 FILLER_108_195
*1366 FILLER_108_197
*1367 FILLER_108_209
*1368 FILLER_108_221
*1369 FILLER_108_233
*1370 FILLER_108_245
*1371 FILLER_108_251
*1372 FILLER_108_253
*1373 FILLER_108_265
*1374 FILLER_108_27
*1375 FILLER_108_277
*1376 FILLER_108_289
*1377 FILLER_108_29
*1378 FILLER_108_3
*1379 FILLER_108_301
*1380 FILLER_108_307
*1381 FILLER_108_309
*1382 FILLER_108_321
*1383 FILLER_108_333
*1384 FILLER_108_345
*1385 FILLER_108_357
*1386 FILLER_108_363
*1387 FILLER_108_365
*1388 FILLER_108_377
*1389 FILLER_108_389
*1390 FILLER_108_401
*1391 FILLER_108_41
*1392 FILLER_108_413
*1393 FILLER_108_419
*1394 FILLER_108_421
*1395 FILLER_108_433
*1396 FILLER_108_445
*1397 FILLER_108_457
*1398 FILLER_108_469
*1399 FILLER_108_475
*1400 FILLER_108_477
*1401 FILLER_108_489
*1402 FILLER_108_501
*1403 FILLER_108_513
*1404 FILLER_108_525
*1405 FILLER_108_53
*1406 FILLER_108_531
*1407 FILLER_108_533
*1408 FILLER_108_545
*1409 FILLER_108_557
*1410 FILLER_108_569
*1411 FILLER_108_581
*1412 FILLER_108_587
*1413 FILLER_108_589
*1414 FILLER_108_601
*1415 FILLER_108_613
*1416 FILLER_108_625
*1417 FILLER_108_637
*1418 FILLER_108_643
*1419 FILLER_108_645
*1420 FILLER_108_65
*1421 FILLER_108_657
*1422 FILLER_108_669
*1423 FILLER_108_681
*1424 FILLER_108_693
*1425 FILLER_108_699
*1426 FILLER_108_701
*1427 FILLER_108_713
*1428 FILLER_108_725
*1429 FILLER_108_737
*1430 FILLER_108_749
*1431 FILLER_108_755
*1432 FILLER_108_757
*1433 FILLER_108_769
*1434 FILLER_108_77
*1435 FILLER_108_781
*1436 FILLER_108_793
*1437 FILLER_108_805
*1438 FILLER_108_811
*1439 FILLER_108_813
*1440 FILLER_108_825
*1441 FILLER_108_83
*1442 FILLER_108_837
*1443 FILLER_108_849
*1444 FILLER_108_85
*1445 FILLER_108_861
*1446 FILLER_108_867
*1447 FILLER_108_869
*1448 FILLER_108_881
*1449 FILLER_108_893
*1450 FILLER_108_905
*1451 FILLER_108_917
*1452 FILLER_108_923
*1453 FILLER_108_925
*1454 FILLER_108_937
*1455 FILLER_108_949
*1456 FILLER_108_961
*1457 FILLER_108_97
*1458 FILLER_108_973
*1459 FILLER_108_979
*1460 FILLER_108_981
*1461 FILLER_108_993
*1462 FILLER_109_1001
*1463 FILLER_109_1007
*1464 FILLER_109_1009
*1465 FILLER_109_1021
*1466 FILLER_109_1033
*1467 FILLER_109_1045
*1468 FILLER_109_105
*1469 FILLER_109_1057
*1470 FILLER_109_1063
*1471 FILLER_109_1065
*1472 FILLER_109_1077
*1473 FILLER_109_1089
*1474 FILLER_109_1101
*1475 FILLER_109_111
*1476 FILLER_109_1113
*1477 FILLER_109_1119
*1478 FILLER_109_1121
*1479 FILLER_109_113
*1480 FILLER_109_1133
*1481 FILLER_109_1145
*1482 FILLER_109_1157
*1483 FILLER_109_1169
*1484 FILLER_109_1175
*1485 FILLER_109_1177
*1486 FILLER_109_1189
*1487 FILLER_109_1201
*1488 FILLER_109_1213
*1489 FILLER_109_125
*1490 FILLER_109_137
*1491 FILLER_109_149
*1492 FILLER_109_15
*1493 FILLER_109_161
*1494 FILLER_109_167
*1495 FILLER_109_169
*1496 FILLER_109_181
*1497 FILLER_109_193
*1498 FILLER_109_205
*1499 FILLER_109_217
*1500 FILLER_109_223
*1501 FILLER_109_225
*1502 FILLER_109_237
*1503 FILLER_109_249
*1504 FILLER_109_261
*1505 FILLER_109_27
*1506 FILLER_109_273
*1507 FILLER_109_279
*1508 FILLER_109_281
*1509 FILLER_109_293
*1510 FILLER_109_3
*1511 FILLER_109_305
*1512 FILLER_109_317
*1513 FILLER_109_329
*1514 FILLER_109_335
*1515 FILLER_109_337
*1516 FILLER_109_349
*1517 FILLER_109_361
*1518 FILLER_109_373
*1519 FILLER_109_385
*1520 FILLER_109_39
*1521 FILLER_109_391
*1522 FILLER_109_393
*1523 FILLER_109_405
*1524 FILLER_109_417
*1525 FILLER_109_429
*1526 FILLER_109_441
*1527 FILLER_109_447
*1528 FILLER_109_449
*1529 FILLER_109_461
*1530 FILLER_109_473
*1531 FILLER_109_485
*1532 FILLER_109_497
*1533 FILLER_109_503
*1534 FILLER_109_505
*1535 FILLER_109_51